pcf
* control data
             restart          estimation
        57       396         5         1        19
         4         3              single               point
   1.000000E+01  -3.000000E+00   3.000000E-01   3.000000E-02        10
   3.000000E+01   3.000000E+01   1.000000E-03
   1.000000E-01
         0   1.000000E-02         3         3   1.000000E-02         3
         0         0         0
* singular value decomposition
         1
  10000000    1.000000E-06
1
* parameter groups
in_flows               rel_to_max            2.0000000000E+00      0.0 switch                2.0000000000E+00      parabolic             1.0000000000E-05      5.0000000000E-01      smaller              
out_flows              rel_to_max            2.0000000000E+00      0.0 switch                2.0000000000E+00      parabolic             1.0000000000E-05      5.0000000000E-01      smaller              
model                  relative              1.0000000000E-02      0.0 switch                2.0000000000E+00      parabolic             1.0000000000E-05      5.0000000000E-01      smaller              
tot                    relative              1.0000000000E-02      0.0 switch                2.0000000000E+00      parabolic             1.0000000000E-05      5.0000000000E-01      smaller              
exp                    relative              1.0000000000E-02      0.0 switch                2.0000000000E+00      parabolic             1.0000000000E-05      5.0000000000E-01      smaller              
* parameter data
                             in_inst:0_usecol:1_direct_idx0:18.75  log                   relative              1.0454500000E+00      1.0000000001E+00      1.0000000001E+10      in_flows              1.0000000000E+00      -1.0000000000E+00     1          
                            out_inst:0_usecol:2_direct_idx0:18.75  log                   relative              1.0454500000E+00      1.0000000001E+00      1.0000000001E+10      out_flows             -1.0000000000E+00     -1.0000000000E+00     1          
                             in_inst:0_usecol:1_direct_idx0:21.25  log                   relative              1.0454500000E+00      1.0000000001E+00      1.0000000001E+10      in_flows              1.0000000000E+00      -1.0000000000E+00     1          
                            out_inst:0_usecol:2_direct_idx0:21.25  log                   relative              1.0454500000E+00      1.0000000001E+00      1.0000000001E+10      out_flows             -1.0000000000E+00     -1.0000000000E+00     1          
                             in_inst:0_usecol:1_direct_idx0:23.75  log                   relative              1.0454500000E+00      1.0000000001E+00      1.0000000001E+10      in_flows              1.0000000000E+00      -1.0000000000E+00     1          
                            out_inst:0_usecol:2_direct_idx0:23.75  log                   relative              1.0454500000E+00      1.0000000001E+00      1.0000000001E+10      out_flows             -1.0000000000E+00     -1.0000000000E+00     1          
                             in_inst:0_usecol:1_direct_idx0:26.25  log                   relative              1.0454500000E+00      1.0000000001E+00      1.0000000001E+10      in_flows              1.0000000000E+00      -1.0000000000E+00     1          
                            out_inst:0_usecol:2_direct_idx0:26.25  log                   relative              1.0454500000E+00      1.0000000001E+00      1.0000000001E+10      out_flows             -1.0000000000E+00     -1.0000000000E+00     1          
                             in_inst:0_usecol:1_direct_idx0:28.75  log                   relative              1.0454500000E+00      1.0000000001E+00      1.0000000001E+10      in_flows              1.0000000000E+00      -1.0000000000E+00     1          
                            out_inst:0_usecol:2_direct_idx0:28.75  log                   relative              1.0454500000E+00      1.0000000001E+00      1.0000000001E+10      out_flows             -1.0000000000E+00     -1.0000000000E+00     1          
                             in_inst:0_usecol:1_direct_idx0:31.25  log                   relative              1.0454500000E+00      1.0000000001E+00      1.0000000001E+10      in_flows              1.0000000000E+00      -1.0000000000E+00     1          
                            out_inst:0_usecol:2_direct_idx0:31.25  log                   relative              1.0454500000E+00      1.0000000001E+00      1.0000000001E+10      out_flows             -1.0000000000E+00     -1.0000000000E+00     1          
                             in_inst:0_usecol:1_direct_idx0:33.75  log                   relative              1.0454500000E+00      1.0000000001E+00      1.0000000001E+10      in_flows              1.0000000000E+00      -1.0000000000E+00     1          
                            out_inst:0_usecol:2_direct_idx0:33.75  log                   relative              1.0454500000E+00      1.0000000001E+00      1.0000000001E+10      out_flows             -1.0000000000E+00     -1.0000000000E+00     1          
                             in_inst:0_usecol:1_direct_idx0:36.25  log                   relative              1.0454500000E+00      1.0000000001E+00      1.0000000001E+10      in_flows              1.0000000000E+00      -1.0000000000E+00     1          
                            out_inst:0_usecol:2_direct_idx0:36.25  log                   relative              1.0454500000E+00      1.0000000001E+00      1.0000000001E+10      out_flows             -1.0000000000E+00     -1.0000000000E+00     1          
                             in_inst:0_usecol:1_direct_idx0:38.75  log                   relative              1.0454500000E+00      1.0000000001E+00      1.0000000001E+10      in_flows              1.0000000000E+00      -1.0000000000E+00     1          
                            out_inst:0_usecol:2_direct_idx0:38.75  log                   relative              1.0454500000E+00      1.0000000001E+00      1.0000000001E+10      out_flows             -1.0000000000E+00     -1.0000000000E+00     1          
                             in_inst:0_usecol:1_direct_idx0:41.25  log                   relative              1.0454500000E+00      1.0000000001E+00      1.0000000001E+10      in_flows              1.0000000000E+00      -1.0000000000E+00     1          
                            out_inst:0_usecol:2_direct_idx0:41.25  log                   relative              1.0454500000E+00      1.0000000001E+00      1.0000000001E+10      out_flows             -1.0000000000E+00     -1.0000000000E+00     1          
                             in_inst:0_usecol:1_direct_idx0:43.75  log                   relative              1.0454500000E+00      1.0000000001E+00      1.0000000001E+10      in_flows              1.0000000000E+00      -1.0000000000E+00     1          
                            out_inst:0_usecol:2_direct_idx0:43.75  log                   relative              1.0454500000E+00      1.0000000001E+00      1.0000000001E+10      out_flows             -1.0000000000E+00     -1.0000000000E+00     1          
                             in_inst:0_usecol:1_direct_idx0:46.25  log                   relative              1.0454500000E+00      1.0000000001E+00      1.0000000001E+10      in_flows              1.0000000000E+00      -1.0000000000E+00     1          
                            out_inst:0_usecol:2_direct_idx0:46.25  log                   relative              1.0454500000E+00      1.0000000001E+00      1.0000000001E+10      out_flows             -1.0000000000E+00     -1.0000000000E+00     1          
                             in_inst:0_usecol:1_direct_idx0:48.75  log                   relative              1.0454500000E+00      1.0000000001E+00      1.0000000001E+10      in_flows              1.0000000000E+00      -1.0000000000E+00     1          
                            out_inst:0_usecol:2_direct_idx0:48.75  log                   relative              1.0454500000E+00      1.0000000001E+00      1.0000000001E+10      out_flows             -1.0000000000E+00     -1.0000000000E+00     1          
                             in_inst:0_usecol:1_direct_idx0:51.25  log                   relative              1.0454500000E+00      1.0000000001E+00      1.0000000001E+10      in_flows              1.0000000000E+00      -1.0000000000E+00     1          
                            out_inst:0_usecol:2_direct_idx0:51.25  log                   relative              1.0454500000E+00      1.0000000001E+00      1.0000000001E+10      out_flows             -1.0000000000E+00     -1.0000000000E+00     1          
                             in_inst:0_usecol:1_direct_idx0:53.75  log                   relative              1.0454500000E+00      1.0000000001E+00      1.0000000001E+10      in_flows              1.0000000000E+00      -1.0000000000E+00     1          
                            out_inst:0_usecol:2_direct_idx0:53.75  log                   relative              1.0454500000E+00      1.0000000001E+00      1.0000000001E+10      out_flows             -1.0000000000E+00     -1.0000000000E+00     1          
                             in_inst:0_usecol:1_direct_idx0:56.25  log                   relative              1.0454500000E+00      1.0000000001E+00      1.0000000001E+10      in_flows              1.0000000000E+00      -1.0000000000E+00     1          
                            out_inst:0_usecol:2_direct_idx0:56.25  log                   relative              1.0454500000E+00      1.0000000001E+00      1.0000000001E+10      out_flows             -1.0000000000E+00     -1.0000000000E+00     1          
                             in_inst:0_usecol:1_direct_idx0:58.75  log                   relative              1.0454500000E+00      1.0000000001E+00      1.0000000001E+10      in_flows              1.0000000000E+00      -1.0000000000E+00     1          
                            out_inst:0_usecol:2_direct_idx0:58.75  log                   relative              1.0454500000E+00      1.0000000001E+00      1.0000000001E+10      out_flows             -1.0000000000E+00     -1.0000000000E+00     1          
                             in_inst:0_usecol:1_direct_idx0:61.25  log                   relative              1.0454500000E+00      1.0000000001E+00      1.0000000001E+10      in_flows              1.0000000000E+00      -1.0000000000E+00     1          
                            out_inst:0_usecol:2_direct_idx0:61.25  log                   relative              1.0454500000E+00      1.0000000001E+00      1.0000000001E+10      out_flows             -1.0000000000E+00     -1.0000000000E+00     1          
                             in_inst:0_usecol:1_direct_idx0:63.75  log                   relative              1.0454500000E+00      1.0000000001E+00      1.0000000001E+10      in_flows              1.0000000000E+00      -1.0000000000E+00     1          
                            out_inst:0_usecol:2_direct_idx0:63.75  log                   relative              1.0454500000E+00      1.0000000001E+00      1.0000000001E+10      out_flows             -1.0000000000E+00     -1.0000000000E+00     1          
                             in_inst:0_usecol:1_direct_idx0:66.25  log                   relative              1.0454500000E+00      1.0000000001E+00      1.0000000001E+10      in_flows              1.0000000000E+00      -1.0000000000E+00     1          
                            out_inst:0_usecol:2_direct_idx0:66.25  log                   relative              1.0454500000E+00      1.0000000001E+00      1.0000000001E+10      out_flows             -1.0000000000E+00     -1.0000000000E+00     1          
                             in_inst:0_usecol:1_direct_idx0:68.75  log                   relative              1.0454500000E+00      1.0000000001E+00      1.0000000001E+10      in_flows              1.0000000000E+00      -1.0000000000E+00     1          
                            out_inst:0_usecol:2_direct_idx0:68.75  log                   relative              1.0454500000E+00      1.0000000001E+00      1.0000000001E+10      out_flows             -1.0000000000E+00     -1.0000000000E+00     1          
                             in_inst:0_usecol:1_direct_idx0:71.25  log                   relative              1.0454500000E+00      1.0000000001E+00      1.0000000001E+10      in_flows              1.0000000000E+00      -1.0000000000E+00     1          
                            out_inst:0_usecol:2_direct_idx0:71.25  log                   relative              1.0454500000E+00      1.0000000001E+00      1.0000000001E+10      out_flows             -1.0000000000E+00     -1.0000000000E+00     1          
                                       tot_inst:0_usecol:1_direct  log                   relative              9.3166394506E-01      1.0000000000E-03      1.0000000000E+03      tot                   1.0000000000E+00      0.0000000000E+00      1          
                                       exp_inst:0_usecol:1_direct  none                  relative              -1.0000000000E+00     -1.0000000000E+01     1.0000000000E+01      exp                   1.0000000000E+00      0.0000000000E+00      1          
                      p_inst:0_usecol:1_direct_idx0:boreholedepth  fixed                 relative              7.1250000000E+01      -1.0000000000E+01     1.0000000000E+01      model                 1.0000000000E+00      0.0000000000E+00      1          
        p_inst:0_usecol:1_direct_idx0:spatialdiscretizationofgrid  fixed                 relative              2.5000000000E+00      -1.0000000000E+01     1.0000000000E+01      model                 1.0000000000E+00      0.0000000000E+00      1          
p_inst:0_usecol:1_direct_idx0:constantboreholecross-sectionalarea  fixed                 relative              3.1415927000E-02      -1.0000000000E+01     1.0000000000E+01      model                 1.0000000000E+00      0.0000000000E+00      1          
                       p_inst:0_usecol:1_direct_idx0:dispersivity  fixed                 relative              1.2500000000E+00      -1.0000000000E+01     1.0000000000E+01      model                 1.0000000000E+00      0.0000000000E+00      1          
               p_inst:0_usecol:1_direct_idx0:diffusioncoefficient  fixed                 relative              1.0000000000E-09      -1.0000000000E+01     1.0000000000E+01      model                 1.0000000000E+00      0.0000000000E+00      1          
   p_inst:0_usecol:1_direct_idx0:tracerconcentrationofwaterinflow  fixed                 relative              0.0000000000E+00      -1.0000000000E+01     1.0000000000E+01      model                 1.0000000000E+00      0.0000000000E+00      1          
                   p_inst:0_usecol:1_direct_idx0:watertemperature  fixed                 relative              2.8500000000E+01      -1.0000000000E+01     1.0000000000E+01      model                 1.0000000000E+00      0.0000000000E+00      1          
                           p_inst:0_usecol:1_direct_idx0:alphamin  fixed                 relative              2.0000000000E-01      -1.0000000000E+01     1.0000000000E+01      model                 1.0000000000E+00      0.0000000000E+00      1          
                           p_inst:0_usecol:1_direct_idx0:alphamax  fixed                 relative              1.5000000000E+00      -1.0000000000E+01     1.0000000000E+01      model                 1.0000000000E+00      0.0000000000E+00      1          
                            p_inst:0_usecol:1_direct_idx0:flowmin  fixed                 relative              0.0000000000E+00      -1.0000000000E+01     1.0000000000E+01      model                 1.0000000000E+00      0.0000000000E+00      1          
                            p_inst:0_usecol:1_direct_idx0:flowmax  fixed                 relative              2.0000000000E+00      -1.0000000000E+01     1.0000000000E+01      model                 1.0000000000E+00      0.0000000000E+00      1          
* observation groups
prof_0.02_d          
prof_0.2_d           
prof_0.5_d           
prof_1.0_d           
prof_1.5_d           
prof_2.0_d           
prof_3.0_d           
prof_6.0_d           
flow_in              
flow_out             
prof_0.02_td         
prof_0.2_td          
prof_0.5_td          
prof_1.0_td          
prof_1.5_td          
prof_2.0_td          
prof_3.0_td          
prof_6.0_td          
reg_floweq           
* observation data
  dif_usecol:1_idx0:1e+30  1.0000000000E+30      0.0000000000E+00      prof_0.02_d          
    dif_usecol:1_idx0:2.5  2.6622594000E+00      3.3473970205E-02      prof_0.02_d          
 dif_usecol:1_idx0:2.5_10  1.6528158600E+01      3.3473970205E-02      prof_0.02_d          
 dif_usecol:1_idx0:2.5_11  3.3141430000E+00      3.3473970205E-02      prof_0.02_d          
 dif_usecol:1_idx0:2.5_12  5.5886600000E-01      3.3473970205E-02      prof_0.02_d          
 dif_usecol:1_idx0:2.5_13  8.0979000000E-02      3.3473970205E-02      prof_0.02_d          
 dif_usecol:1_idx0:2.5_14  1.2050800000E-02      3.3473970205E-02      prof_0.02_d          
 dif_usecol:1_idx0:2.5_15  2.6400000024E-05      3.3473970205E-02      prof_0.02_d          
 dif_usecol:1_idx0:2.5_16  0.0000000000E+00      3.3473970205E-02      prof_0.02_d          
 dif_usecol:1_idx0:2.5_17  0.0000000000E+00      3.3473970205E-02      prof_0.02_d          
 dif_usecol:1_idx0:2.5_18  0.0000000000E+00      3.3473970205E-02      prof_0.02_d          
 dif_usecol:1_idx0:2.5_19  0.0000000000E+00      3.3473970205E-02      prof_0.02_d          
  dif_usecol:1_idx0:2.5_2  2.6622594000E+00      3.3473970205E-02      prof_0.02_d          
 dif_usecol:1_idx0:2.5_20  -6.9999999823E-06     3.3473970205E-02      prof_0.02_d          
 dif_usecol:1_idx0:2.5_21  -6.9999999823E-06     3.3473970205E-02      prof_0.02_d          
  dif_usecol:1_idx0:2.5_3  1.7296524000E+00      3.3473970205E-02      prof_0.02_d          
  dif_usecol:1_idx0:2.5_4  1.4942157000E+00      3.3473970205E-02      prof_0.02_d          
  dif_usecol:1_idx0:2.5_5  1.3985194000E+00      3.3473970205E-02      prof_0.02_d          
  dif_usecol:1_idx0:2.5_6  1.1877857000E+00      3.3473970205E-02      prof_0.02_d          
  dif_usecol:1_idx0:2.5_7  -2.4292398810E+02     3.3473970205E-02      prof_0.02_d          
  dif_usecol:1_idx0:2.5_8  1.6117402180E+02      3.3473970205E-02      prof_0.02_d          
  dif_usecol:1_idx0:2.5_9  6.2840767100E+01      3.3473970205E-02      prof_0.02_d          
  dif_usecol:2_idx0:1e+30  1.0000000000E+30      0.0000000000E+00      prof_0.2_d           
    dif_usecol:2_idx0:2.5  2.0730562400E+01      1.8819624781E-02      prof_0.2_d           
 dif_usecol:2_idx0:2.5_10  1.6765727350E+01      1.8819624781E-02      prof_0.2_d           
 dif_usecol:2_idx0:2.5_11  3.1005372010E+01      1.8819624781E-02      prof_0.2_d           
 dif_usecol:2_idx0:2.5_12  4.6776910150E+01      1.8819624781E-02      prof_0.2_d           
 dif_usecol:2_idx0:2.5_13  5.8372247300E+01      1.8819624781E-02      prof_0.2_d           
 dif_usecol:2_idx0:2.5_14  2.8624032310E+02      1.8819624781E-02      prof_0.2_d           
 dif_usecol:2_idx0:2.5_15  1.0672151800E+01      1.8819624781E-02      prof_0.2_d           
 dif_usecol:2_idx0:2.5_16  2.4193870000E-01      1.8819624781E-02      prof_0.2_d           
 dif_usecol:2_idx0:2.5_17  3.6652000000E-03      1.8819624781E-02      prof_0.2_d           
 dif_usecol:2_idx0:2.5_18  3.7799999973E-05      1.8819624781E-02      prof_0.2_d           
 dif_usecol:2_idx0:2.5_19  1.9999998813E-07      1.8819624781E-02      prof_0.2_d           
  dif_usecol:2_idx0:2.5_2  2.0730562400E+01      1.8819624781E-02      prof_0.2_d           
 dif_usecol:2_idx0:2.5_20  -6.9079999997E-04     1.8819624781E-02      prof_0.2_d           
 dif_usecol:2_idx0:2.5_21  -6.9079999997E-04     1.8819624781E-02      prof_0.2_d           
  dif_usecol:2_idx0:2.5_3  1.4929595300E+01      1.8819624781E-02      prof_0.2_d           
  dif_usecol:2_idx0:2.5_4  1.3255129000E+01      1.8819624781E-02      prof_0.2_d           
  dif_usecol:2_idx0:2.5_5  1.2739892700E+01      1.8819624781E-02      prof_0.2_d           
  dif_usecol:2_idx0:2.5_6  8.9806161000E+00      1.8819624781E-02      prof_0.2_d           
  dif_usecol:2_idx0:2.5_7  -4.3806690898E+02     1.8819624781E-02      prof_0.2_d           
  dif_usecol:2_idx0:2.5_8  2.1920036600E+00      1.8819624781E-02      prof_0.2_d           
  dif_usecol:2_idx0:2.5_9  7.0644570100E+00      1.8819624781E-02      prof_0.2_d           
  dif_usecol:3_idx0:1e+30  1.0000000000E+30      0.0000000000E+00      prof_0.5_d           
    dif_usecol:3_idx0:2.5  3.4299428500E+01      1.7853213005E-02      prof_0.5_d           
 dif_usecol:3_idx0:2.5_10  3.0050619000E-01      1.7853213005E-02      prof_0.5_d           
 dif_usecol:3_idx0:2.5_11  3.1815901000E-01      1.7853213005E-02      prof_0.5_d           
 dif_usecol:3_idx0:2.5_12  3.6653615000E-01      1.7853213005E-02      prof_0.5_d           
 dif_usecol:3_idx0:2.5_13  5.8566195000E-01      1.7853213005E-02      prof_0.5_d           
 dif_usecol:3_idx0:2.5_14  3.7710751630E+02      1.7853213005E-02      prof_0.5_d           
 dif_usecol:3_idx0:2.5_15  7.6270977000E+01      1.7853213005E-02      prof_0.5_d           
 dif_usecol:3_idx0:2.5_16  7.1410488000E+00      1.7853213005E-02      prof_0.5_d           
 dif_usecol:3_idx0:2.5_17  3.9492840000E-01      1.7853213005E-02      prof_0.5_d           
 dif_usecol:3_idx0:2.5_18  1.3848700000E-02      1.7853213005E-02      prof_0.5_d           
 dif_usecol:3_idx0:2.5_19  3.0590000000E-04      1.7853213005E-02      prof_0.5_d           
  dif_usecol:3_idx0:2.5_2  3.4299428500E+01      1.7853213005E-02      prof_0.5_d           
 dif_usecol:3_idx0:2.5_20  -4.2591000000E-03     1.7853213005E-02      prof_0.5_d           
 dif_usecol:3_idx0:2.5_21  -4.2591000000E-03     1.7853213005E-02      prof_0.5_d           
  dif_usecol:3_idx0:2.5_3  2.8151545900E+01      1.7853213005E-02      prof_0.5_d           
  dif_usecol:3_idx0:2.5_4  2.6495558200E+01      1.7853213005E-02      prof_0.5_d           
  dif_usecol:3_idx0:2.5_5  2.6616426200E+01      1.7853213005E-02      prof_0.5_d           
  dif_usecol:3_idx0:2.5_6  2.1187317400E+01      1.7853213005E-02      prof_0.5_d           
  dif_usecol:3_idx0:2.5_7  -4.0081667290E+02     1.7853213005E-02      prof_0.5_d           
  dif_usecol:3_idx0:2.5_8  2.6006824000E-01      1.7853213005E-02      prof_0.5_d           
  dif_usecol:3_idx0:2.5_9  2.8093136000E-01      1.7853213005E-02      prof_0.5_d           
  dif_usecol:4_idx0:1e+30  1.0000000000E+30      0.0000000000E+00      prof_1.0_d           
    dif_usecol:4_idx0:2.5  3.4857758600E+01      2.1596585431E-02      prof_1.0_d           
 dif_usecol:4_idx0:2.5_10  3.6494038000E-01      2.1596585431E-02      prof_1.0_d           
 dif_usecol:4_idx0:2.5_11  3.6942903000E-01      2.1596585431E-02      prof_1.0_d           
 dif_usecol:4_idx0:2.5_12  3.7237050000E-01      2.1596585431E-02      prof_1.0_d           
 dif_usecol:4_idx0:2.5_13  4.5304424000E-01      2.1596585431E-02      prof_1.0_d           
 dif_usecol:4_idx0:2.5_14  2.8052780144E+02      2.1596585431E-02      prof_1.0_d           
 dif_usecol:4_idx0:2.5_15  1.4727402700E+02      2.1596585431E-02      prof_1.0_d           
 dif_usecol:4_idx0:2.5_16  3.4733871400E+01      2.1596585431E-02      prof_1.0_d           
 dif_usecol:4_idx0:2.5_17  4.7173233000E+00      2.1596585431E-02      prof_1.0_d           
 dif_usecol:4_idx0:2.5_18  3.9821480000E-01      2.1596585431E-02      prof_1.0_d           
 dif_usecol:4_idx0:2.5_19  2.0931100000E-02      2.1596585431E-02      prof_1.0_d           
  dif_usecol:4_idx0:2.5_2  3.4857758600E+01      2.1596585431E-02      prof_1.0_d           
 dif_usecol:4_idx0:2.5_20  -1.6061500000E-02     2.1596585431E-02      prof_1.0_d           
 dif_usecol:4_idx0:2.5_21  -1.6061500000E-02     2.1596585431E-02      prof_1.0_d           
  dif_usecol:4_idx0:2.5_3  3.3124546000E+01      2.1596585431E-02      prof_1.0_d           
  dif_usecol:4_idx0:2.5_4  3.4266683700E+01      2.1596585431E-02      prof_1.0_d           
  dif_usecol:4_idx0:2.5_5  3.7072567600E+01      2.1596585431E-02      prof_1.0_d           
  dif_usecol:4_idx0:2.5_6  3.4226447300E+01      2.1596585431E-02      prof_1.0_d           
  dif_usecol:4_idx0:2.5_7  -3.2486906154E+02     2.1596585431E-02      prof_1.0_d           
  dif_usecol:4_idx0:2.5_8  3.3073516000E-01      2.1596585431E-02      prof_1.0_d           
  dif_usecol:4_idx0:2.5_9  3.4960819000E-01      2.1596585431E-02      prof_1.0_d           
  dif_usecol:5_idx0:1e+30  1.0000000000E+30      0.0000000000E+00      prof_1.5_d           
    dif_usecol:5_idx0:2.5  2.6911904700E+01      2.6036733863E-02      prof_1.5_d           
 dif_usecol:5_idx0:2.5_10  3.6102827000E-01      2.6036733863E-02      prof_1.5_d           
 dif_usecol:5_idx0:2.5_11  3.6751607000E-01      2.6036733863E-02      prof_1.5_d           
 dif_usecol:5_idx0:2.5_12  3.7287219000E-01      2.6036733863E-02      prof_1.5_d           
 dif_usecol:5_idx0:2.5_13  4.3476882000E-01      2.6036733863E-02      prof_1.5_d           
 dif_usecol:5_idx0:2.5_14  2.1096767535E+02      2.6036733863E-02      prof_1.5_d           
 dif_usecol:5_idx0:2.5_15  1.7815190700E+02      2.6036733863E-02      prof_1.5_d           
 dif_usecol:5_idx0:2.5_16  6.8416190600E+01      2.6036733863E-02      prof_1.5_d           
 dif_usecol:5_idx0:2.5_17  1.5131765700E+01      2.6036733863E-02      prof_1.5_d           
 dif_usecol:5_idx0:2.5_18  2.0764700000E+00      2.6036733863E-02      prof_1.5_d           
 dif_usecol:5_idx0:2.5_19  1.7712080000E-01      2.6036733863E-02      prof_1.5_d           
  dif_usecol:5_idx0:2.5_2  2.6911904700E+01      2.6036733863E-02      prof_1.5_d           
 dif_usecol:5_idx0:2.5_20  -2.8061100000E-02     2.6036733863E-02      prof_1.5_d           
 dif_usecol:5_idx0:2.5_21  -2.8061100000E-02     2.6036733863E-02      prof_1.5_d           
  dif_usecol:5_idx0:2.5_3  2.8085999100E+01      2.6036733863E-02      prof_1.5_d           
  dif_usecol:5_idx0:2.5_4  3.1327003500E+01      2.6036733863E-02      prof_1.5_d           
  dif_usecol:5_idx0:2.5_5  3.6206681000E+01      2.6036733863E-02      prof_1.5_d           
  dif_usecol:5_idx0:2.5_6  3.6828758800E+01      2.6036733863E-02      prof_1.5_d           
  dif_usecol:5_idx0:2.5_7  -2.4589737097E+02     2.6036733863E-02      prof_1.5_d           
  dif_usecol:5_idx0:2.5_8  3.2925673000E-01      2.6036733863E-02      prof_1.5_d           
  dif_usecol:5_idx0:2.5_9  3.4638304000E-01      2.6036733863E-02      prof_1.5_d           
  dif_usecol:6_idx0:1e+30  1.0000000000E+30      0.0000000000E+00      prof_2.0_d           
    dif_usecol:6_idx0:2.5  1.8689977540E+01      3.0810508145E-02      prof_2.0_d           
 dif_usecol:6_idx0:2.5_10  3.0839312000E-01      3.0810508145E-02      prof_2.0_d           
 dif_usecol:6_idx0:2.5_11  3.1530158000E-01      3.0810508145E-02      prof_2.0_d           
 dif_usecol:6_idx0:2.5_12  3.2151587000E-01      3.0810508145E-02      prof_2.0_d           
 dif_usecol:6_idx0:2.5_13  3.6993788000E-01      3.0810508145E-02      prof_2.0_d           
 dif_usecol:6_idx0:2.5_14  1.6002928231E+02      3.0810508145E-02      prof_2.0_d           
 dif_usecol:6_idx0:2.5_15  1.8508533110E+02      3.0810508145E-02      prof_2.0_d           
 dif_usecol:6_idx0:2.5_16  9.9180181800E+01      3.0810508145E-02      prof_2.0_d           
 dif_usecol:6_idx0:2.5_17  3.0730642300E+01      3.0810508145E-02      prof_2.0_d           
 dif_usecol:6_idx0:2.5_18  5.9146279000E+00      3.0810508145E-02      prof_2.0_d           
 dif_usecol:6_idx0:2.5_19  7.0794250000E-01      3.0810508145E-02      prof_2.0_d           
  dif_usecol:6_idx0:2.5_2  1.8689977540E+01      3.0810508145E-02      prof_2.0_d           
 dif_usecol:6_idx0:2.5_20  -1.5056800000E-02     3.0810508145E-02      prof_2.0_d           
 dif_usecol:6_idx0:2.5_21  -1.5056800000E-02     3.0810508145E-02      prof_2.0_d           
  dif_usecol:6_idx0:2.5_3  2.0760078160E+01      3.0810508145E-02      prof_2.0_d           
  dif_usecol:6_idx0:2.5_4  2.4496049100E+01      3.0810508145E-02      prof_2.0_d           
  dif_usecol:6_idx0:2.5_5  2.9876660900E+01      3.0810508145E-02      prof_2.0_d           
  dif_usecol:6_idx0:2.5_6  3.2584484800E+01      3.0810508145E-02      prof_2.0_d           
  dif_usecol:6_idx0:2.5_7  -1.7599723093E+02     3.0810508145E-02      prof_2.0_d           
  dif_usecol:6_idx0:2.5_8  2.8141127000E-01      3.0810508145E-02      prof_2.0_d           
  dif_usecol:6_idx0:2.5_9  2.9571520000E-01      3.0810508145E-02      prof_2.0_d           
  dif_usecol:7_idx0:1e+30  1.0000000000E+30      0.0000000000E+00      prof_3.0_d           
    dif_usecol:7_idx0:2.5  7.8552482200E+00      3.8481231818E-02      prof_3.0_d           
 dif_usecol:7_idx0:2.5_10  1.7175783900E-01      3.8481231818E-02      prof_3.0_d           
 dif_usecol:7_idx0:2.5_11  1.7660409500E-01      3.8481231818E-02      prof_3.0_d           
 dif_usecol:7_idx0:2.5_12  1.8133183500E-01      3.8481231818E-02      prof_3.0_d           
 dif_usecol:7_idx0:2.5_13  2.1087212400E-01      3.8481231818E-02      prof_3.0_d           
 dif_usecol:7_idx0:2.5_14  9.3034602755E+01      3.8481231818E-02      prof_3.0_d           
 dif_usecol:7_idx0:2.5_15  1.6404278930E+02      3.8481231818E-02      prof_3.0_d           
 dif_usecol:7_idx0:2.5_16  1.3924899040E+02      3.8481231818E-02      prof_3.0_d           
 dif_usecol:7_idx0:2.5_17  6.9106802500E+01      3.8481231818E-02      prof_3.0_d           
 dif_usecol:7_idx0:2.5_18  2.1405455100E+01      3.8481231818E-02      prof_3.0_d           
 dif_usecol:7_idx0:2.5_19  4.1350119000E+00      3.8481231818E-02      prof_3.0_d           