pcf
* control data
             restart          estimation
        56       220         6        44        12
         3         2              single               point
   2.000000E+01  -3.000000E+00   3.000000E-01   1.000000E-02        -7
   1.000000E+01   1.000000E+01   1.000000E-03
   1.000000E-01
         0   1.000000E-02         3         3   1.000000E-02         3
         0         0         0
* singular value decomposition
         1
  10000000    1.000000E-06
1
* parameter groups
diff                   relative              1.0000000000E-02      0.0 switch                2.0000000000E+00      parabolic             1.0000000000E-05      5.0000000000E-01      smaller              
disp                   relative              1.0000000000E-02      0.0 switch                2.0000000000E+00      parabolic             1.0000000000E-05      5.0000000000E-01      smaller              
in_flows               relative              1.0000000000E-02      0.0 switch                2.0000000000E+00      parabolic             1.0000000000E-05      5.0000000000E-01      smaller              
out_flows              relative              1.0000000000E-02      0.0 switch                2.0000000000E+00      parabolic             1.0000000000E-05      5.0000000000E-01      smaller              
model                  relative              1.0000000000E-02      0.0 switch                2.0000000000E+00      parabolic             1.0000000000E-05      5.0000000000E-01      smaller              
tot                    relative              1.0000000000E-02      0.0 switch                2.0000000000E+00      parabolic             1.0000000000E-05      5.0000000000E-01      smaller              
* parameter data
                             in_inst:0_usecol:1_direct_idx0:18.75  log                   relative              5.5692288268E-01      1.0000000000E-08      1.0000000000E+08      in_flows              1.0000000000E+00      0.0000000000E+00      1          
                            out_inst:0_usecol:2_direct_idx0:18.75  log                   relative              1.9601475123E-01      1.0000000000E-08      1.0000000000E+08      out_flows             -1.0000000000E+00     0.0000000000E+00      1          
                             in_inst:0_usecol:1_direct_idx0:21.25  log                   relative              2.2310612967E+00      1.0000000000E-08      1.0000000000E+08      in_flows              1.0000000000E+00      0.0000000000E+00      1          
                            out_inst:0_usecol:2_direct_idx0:21.25  log                   relative              2.0491564166E-01      1.0000000000E-08      1.0000000000E+08      out_flows             -1.0000000000E+00     0.0000000000E+00      1          
                             in_inst:0_usecol:1_direct_idx0:23.75  log                   relative              1.6653469972E+00      1.0000000000E-08      1.0000000000E+08      in_flows              1.0000000000E+00      0.0000000000E+00      1          
                            out_inst:0_usecol:2_direct_idx0:23.75  log                   relative              2.1073292864E-01      1.0000000000E-08      1.0000000000E+08      out_flows             -1.0000000000E+00     0.0000000000E+00      1          
                             in_inst:0_usecol:1_direct_idx0:26.25  log                   relative              1.2453782567E+00      1.0000000000E-08      1.0000000000E+08      in_flows              1.0000000000E+00      0.0000000000E+00      1          
                            out_inst:0_usecol:2_direct_idx0:26.25  log                   relative              2.1998289603E-01      1.0000000000E-08      1.0000000000E+08      out_flows             -1.0000000000E+00     0.0000000000E+00      1          
                             in_inst:0_usecol:1_direct_idx0:28.75  log                   relative              9.4698635776E-01      1.0000000000E-08      1.0000000000E+08      in_flows              1.0000000000E+00      0.0000000000E+00      1          
                            out_inst:0_usecol:2_direct_idx0:28.75  log                   relative              2.4266560265E-01      1.0000000000E-08      1.0000000000E+08      out_flows             -1.0000000000E+00     0.0000000000E+00      1          
                             in_inst:0_usecol:1_direct_idx0:31.25  log                   relative              9.4765106717E-01      1.0000000000E-08      1.0000000000E+08      in_flows              1.0000000000E+00      0.0000000000E+00      1          
                            out_inst:0_usecol:2_direct_idx0:31.25  log                   relative              3.0449913572E-01      1.0000000000E-08      1.0000000000E+08      out_flows             -1.0000000000E+00     0.0000000000E+00      1          
                             in_inst:0_usecol:1_direct_idx0:33.75  log                   relative              2.5338966362E+00      1.0000000000E-08      1.0000000000E+08      in_flows              1.0000000000E+00      0.0000000000E+00      1          
                            out_inst:0_usecol:2_direct_idx0:33.75  log                   relative              4.9496650446E-01      1.0000000000E-08      1.0000000000E+08      out_flows             -1.0000000000E+00     0.0000000000E+00      1          
                             in_inst:0_usecol:1_direct_idx0:36.25  log                   relative              6.7984693627E+01      1.0000000000E-08      1.0000000000E+08      in_flows              1.0000000000E+00      0.0000000000E+00      1          
                            out_inst:0_usecol:2_direct_idx0:36.25  log                   relative              1.2732566145E+00      1.0000000000E-08      1.0000000000E+08      out_flows             -1.0000000000E+00     0.0000000000E+00      1          
                             in_inst:0_usecol:1_direct_idx0:38.75  log                   relative              8.3136670758E+00      1.0000000000E-08      1.0000000000E+08      in_flows              1.0000000000E+00      0.0000000000E+00      1          
                            out_inst:0_usecol:2_direct_idx0:38.75  log                   relative              2.6112503922E+00      1.0000000000E-08      1.0000000000E+08      out_flows             -1.0000000000E+00     0.0000000000E+00      1          
                             in_inst:0_usecol:1_direct_idx0:41.25  log                   relative              3.2063606541E+00      1.0000000000E-08      1.0000000000E+08      in_flows              1.0000000000E+00      0.0000000000E+00      1          
                            out_inst:0_usecol:2_direct_idx0:41.25  log                   relative              4.4921535101E+00      1.0000000000E-08      1.0000000000E+08      out_flows             -1.0000000000E+00     0.0000000000E+00      1          
                             in_inst:0_usecol:1_direct_idx0:43.75  log                   relative              2.5062663902E+00      1.0000000000E-08      1.0000000000E+08      in_flows              1.0000000000E+00      0.0000000000E+00      1          
                            out_inst:0_usecol:2_direct_idx0:43.75  log                   relative              7.6618539275E+00      1.0000000000E-08      1.0000000000E+08      out_flows             -1.0000000000E+00     0.0000000000E+00      1          
                             in_inst:0_usecol:1_direct_idx0:46.25  log                   relative              2.8712173390E+00      1.0000000000E-08      1.0000000000E+08      in_flows              1.0000000000E+00      0.0000000000E+00      1          
                            out_inst:0_usecol:2_direct_idx0:46.25  log                   relative              1.4285245835E+01      1.0000000000E-08      1.0000000000E+08      out_flows             -1.0000000000E+00     0.0000000000E+00      1          
                             in_inst:0_usecol:1_direct_idx0:48.75  log                   relative              3.6543654096E+00      1.0000000000E-08      1.0000000000E+08      in_flows              1.0000000000E+00      0.0000000000E+00      1          
                            out_inst:0_usecol:2_direct_idx0:48.75  log                   relative              1.9873382040E+01      1.0000000000E-08      1.0000000000E+08      out_flows             -1.0000000000E+00     0.0000000000E+00      1          
                             in_inst:0_usecol:1_direct_idx0:51.25  log                   relative              2.6974190744E+00      1.0000000000E-08      1.0000000000E+08      in_flows              1.0000000000E+00      0.0000000000E+00      1          
                            out_inst:0_usecol:2_direct_idx0:51.25  log                   relative              9.7348855172E+00      1.0000000000E-08      1.0000000000E+08      out_flows             -1.0000000000E+00     0.0000000000E+00      1          
                             in_inst:0_usecol:1_direct_idx0:53.75  log                   relative              4.9690674082E-01      1.0000000000E-08      1.0000000000E+08      in_flows              1.0000000000E+00      0.0000000000E+00      1          
                            out_inst:0_usecol:2_direct_idx0:53.75  log                   relative              5.6706490457E-01      1.0000000000E-08      1.0000000000E+08      out_flows             -1.0000000000E+00     0.0000000000E+00      1          
                             in_inst:0_usecol:1_direct_idx0:56.25  log                   relative              2.0950077583E-01      1.0000000000E-08      1.0000000000E+08      in_flows              1.0000000000E+00      0.0000000000E+00      1          
                            out_inst:0_usecol:2_direct_idx0:56.25  log                   relative              2.0699830202E-01      1.0000000000E-08      1.0000000000E+08      out_flows             -1.0000000000E+00     0.0000000000E+00      1          
                             in_inst:0_usecol:1_direct_idx0:58.75  log                   relative              1.3629373126E-01      1.0000000000E-08      1.0000000000E+08      in_flows              1.0000000000E+00      0.0000000000E+00      1          
                            out_inst:0_usecol:2_direct_idx0:58.75  log                   relative              1.2024984131E-01      1.0000000000E-08      1.0000000000E+08      out_flows             -1.0000000000E+00     0.0000000000E+00      1          
                             in_inst:0_usecol:1_direct_idx0:61.25  log                   relative              6.9860137324E-02      1.0000000000E-08      1.0000000000E+08      in_flows              1.0000000000E+00      0.0000000000E+00      1          
                            out_inst:0_usecol:2_direct_idx0:61.25  log                   relative              8.5967565108E-02      1.0000000000E-08      1.0000000000E+08      out_flows             -1.0000000000E+00     0.0000000000E+00      1          
                             in_inst:0_usecol:1_direct_idx0:63.75  log                   relative              4.2760497501E-02      1.0000000000E-08      1.0000000000E+08      in_flows              1.0000000000E+00      0.0000000000E+00      1          
                            out_inst:0_usecol:2_direct_idx0:63.75  log                   relative              7.2551881390E-02      1.0000000000E-08      1.0000000000E+08      out_flows             -1.0000000000E+00     0.0000000000E+00      1          
                             in_inst:0_usecol:1_direct_idx0:66.25  log                   relative              3.5904167599E-02      1.0000000000E-08      1.0000000000E+08      in_flows              1.0000000000E+00      0.0000000000E+00      1          
                            out_inst:0_usecol:2_direct_idx0:66.25  log                   relative              7.2212424393E-02      1.0000000000E-08      1.0000000000E+08      out_flows             -1.0000000000E+00     0.0000000000E+00      1          
                             in_inst:0_usecol:1_direct_idx0:68.75  log                   relative              4.5462772982E-02      1.0000000000E-08      1.0000000000E+08      in_flows              1.0000000000E+00      0.0000000000E+00      1          
                            out_inst:0_usecol:2_direct_idx0:68.75  log                   relative              8.7870194102E-02      1.0000000000E-08      1.0000000000E+08      out_flows             -1.0000000000E+00     0.0000000000E+00      1          
                             in_inst:0_usecol:1_direct_idx0:71.25  log                   relative              1.6173006970E-01      1.0000000000E-08      1.0000000000E+08      in_flows              1.0000000000E+00      0.0000000000E+00      1          
                            out_inst:0_usecol:2_direct_idx0:71.25  log                   relative              1.3083516094E-01      1.0000000000E-08      1.0000000000E+08      out_flows             -1.0000000000E+00     0.0000000000E+00      1          
                                       tot_inst:0_usecol:1_direct  log                   relative              3.6456100880E+00      0.0000000000E+00      1.0000000000E+03      tot                   1.0000000000E+00      0.0000000000E+00      1          
                      p_inst:0_usecol:1_direct_idx0:boreholedepth  fixed                 relative              7.1250000000E+01      -1.0000000000E+01     1.0000000000E+01      model                 1.0000000000E+00      0.0000000000E+00      1          
        p_inst:0_usecol:1_direct_idx0:spatialdiscretizationofgrid  fixed                 relative              2.5000000000E+00      -1.0000000000E+01     1.0000000000E+01      model                 1.0000000000E+00      0.0000000000E+00      1          
p_inst:0_usecol:1_direct_idx0:constantboreholecross-sectionalarea  fixed                 relative              3.1415927000E-02      -1.0000000000E+01     1.0000000000E+01      model                 1.0000000000E+00      0.0000000000E+00      1          
                       p_inst:0_usecol:1_direct_idx0:dispersivity  log                   relative              7.7069540909E-01      1.0000000000E-03      1.0000000000E+01      disp                  1.0000000000E+00      0.0000000000E+00      1          
               p_inst:0_usecol:1_direct_idx0:diffusioncoefficient  log                   relative              1.0000000000E-09      1.0000000000E-12      1.0000000000E-06      diff                  1.0000000000E+00      0.0000000000E+00      1          
   p_inst:0_usecol:1_direct_idx0:tracerconcentrationofwaterinflow  fixed                 relative              0.0000000000E+00      -1.0000000000E+01     1.0000000000E+01      model                 1.0000000000E+00      0.0000000000E+00      1          
                   p_inst:0_usecol:1_direct_idx0:watertemperature  fixed                 relative              2.8500000000E+01      -1.0000000000E+01     1.0000000000E+01      model                 1.0000000000E+00      0.0000000000E+00      1          
                           p_inst:0_usecol:1_direct_idx0:alphamin  fixed                 relative              2.0000000000E-01      -1.0000000000E+01     1.0000000000E+01      model                 1.0000000000E+00      0.0000000000E+00      1          
                           p_inst:0_usecol:1_direct_idx0:alphamax  fixed                 relative              1.5000000000E+00      -1.0000000000E+01     1.0000000000E+01      model                 1.0000000000E+00      0.0000000000E+00      1          
                            p_inst:0_usecol:1_direct_idx0:flowmin  fixed                 relative              0.0000000000E+00      -1.0000000000E+01     1.0000000000E+01      model                 1.0000000000E+00      0.0000000000E+00      1          
                            p_inst:0_usecol:1_direct_idx0:flowmax  fixed                 relative              2.0000000000E+00      -1.0000000000E+01     1.0000000000E+01      model                 1.0000000000E+00      0.0000000000E+00      1          
* observation groups
flow_in              
flow_out             
prof_0.02            
prof_0.2             
prof_0.5             
prof_1.0             
prof_1.5             
prof_2.0             
prof_3.0             
prof_6.0             
reg_in_flows         
reg_out_flows        
* observation data
flow__usecol:1_idx0:18.75  1.0000000000E+00      0.0000000000E+00      flow_in              
flow__usecol:1_idx0:21.25  1.0000000000E+00      0.0000000000E+00      flow_in              
flow__usecol:1_idx0:23.75  1.0000000000E+00      0.0000000000E+00      flow_in              
flow__usecol:1_idx0:26.25  1.0000000000E+00      0.0000000000E+00      flow_in              
flow__usecol:1_idx0:28.75  1.0000000000E+00      0.0000000000E+00      flow_in              
flow__usecol:1_idx0:31.25  1.0000000000E+00      0.0000000000E+00      flow_in              
flow__usecol:1_idx0:33.75  1.0000000000E+00      0.0000000000E+00      flow_in              
flow__usecol:1_idx0:36.25  1.0000000000E+00      0.0000000000E+00      flow_in              
flow__usecol:1_idx0:38.75  1.0000000000E+00      0.0000000000E+00      flow_in              
flow__usecol:1_idx0:41.25  1.0000000000E+00      0.0000000000E+00      flow_in              
flow__usecol:1_idx0:43.75  1.0000000000E+00      0.0000000000E+00      flow_in              
flow__usecol:1_idx0:46.25  1.0000000000E+00      0.0000000000E+00      flow_in              
flow__usecol:1_idx0:48.75  1.0000000000E+00      0.0000000000E+00      flow_in              
flow__usecol:1_idx0:51.25  1.0000000000E+00      0.0000000000E+00      flow_in              
flow__usecol:1_idx0:53.75  1.0000000000E+00      0.0000000000E+00      flow_in              
flow__usecol:1_idx0:56.25  1.0000000000E+00      0.0000000000E+00      flow_in              
flow__usecol:1_idx0:58.75  1.0000000000E+00      0.0000000000E+00      flow_in              
flow__usecol:1_idx0:61.25  1.0000000000E+00      0.0000000000E+00      flow_in              
flow__usecol:1_idx0:63.75  1.0000000000E+00      0.0000000000E+00      flow_in              
flow__usecol:1_idx0:66.25  1.0000000000E+00      0.0000000000E+00      flow_in              
flow__usecol:1_idx0:68.75  1.0000000000E+00      0.0000000000E+00      flow_in              
flow__usecol:1_idx0:71.25  1.0000000000E+00      0.0000000000E+00      flow_in              
flow__usecol:2_idx0:18.75  -1.0000000000E+00     0.0000000000E+00      flow_out             
flow__usecol:2_idx0:21.25  -1.0000000000E+00     0.0000000000E+00      flow_out             
flow__usecol:2_idx0:23.75  -1.0000000000E+00     0.0000000000E+00      flow_out             
flow__usecol:2_idx0:26.25  -1.0000000000E+00     0.0000000000E+00      flow_out             
flow__usecol:2_idx0:28.75  -1.0000000000E+00     0.0000000000E+00      flow_out             
flow__usecol:2_idx0:31.25  -1.0000000000E+00     0.0000000000E+00      flow_out             
flow__usecol:2_idx0:33.75  -1.0000000000E+00     0.0000000000E+00      flow_out             
flow__usecol:2_idx0:36.25  -1.0000000000E+00     0.0000000000E+00      flow_out             
flow__usecol:2_idx0:38.75  -1.0000000000E+00     0.0000000000E+00      flow_out             
flow__usecol:2_idx0:41.25  -1.0000000000E+00     0.0000000000E+00      flow_out             
flow__usecol:2_idx0:43.75  -1.0000000000E+00     0.0000000000E+00      flow_out             
flow__usecol:2_idx0:46.25  -1.0000000000E+00     0.0000000000E+00      flow_out             
flow__usecol:2_idx0:48.75  -1.0000000000E+00     0.0000000000E+00      flow_out             
flow__usecol:2_idx0:51.25  -1.0000000000E+00     0.0000000000E+00      flow_out             
flow__usecol:2_idx0:53.75  -1.0000000000E+00     0.0000000000E+00      flow_out             
flow__usecol:2_idx0:56.25  -1.0000000000E+00     0.0000000000E+00      flow_out             
flow__usecol:2_idx0:58.75  -1.0000000000E+00     0.0000000000E+00      flow_out             
flow__usecol:2_idx0:61.25  -1.0000000000E+00     0.0000000000E+00      flow_out             
flow__usecol:2_idx0:63.75  -1.0000000000E+00     0.0000000000E+00      flow_out             
flow__usecol:2_idx0:66.25  -1.0000000000E+00     0.0000000000E+00      flow_out             
flow__usecol:2_idx0:68.75  -1.0000000000E+00     0.0000000000E+00      flow_out             
flow__usecol:2_idx0:71.25  -1.0000000000E+00     0.0000000000E+00      flow_out             
     usecol:1_idx0:18.75   1.0000000000E+30      0.0000000000E+00      prof_0.02            
     usecol:1_idx0:21.25   4.8994254280E+02      3.8649887879E-02      prof_0.02            
     usecol:1_idx0:23.75   4.9260480220E+02      3.8649887879E-02      prof_0.02            
     usecol:1_idx0:26.25   4.9433445460E+02      3.8649887879E-02      prof_0.02            
     usecol:1_idx0:28.75   4.9582867030E+02      3.8649887879E-02      prof_0.02            
     usecol:1_idx0:31.25   4.9722718970E+02      3.8649887879E-02      prof_0.02            
     usecol:1_idx0:33.75   4.9841497540E+02      3.8649887879E-02      prof_0.02            
     usecol:1_idx0:36.25   2.5549098730E+02      3.8649887879E-02      prof_0.02            
     usecol:1_idx0:38.75   4.1666500910E+02      3.8649887879E-02      prof_0.02            
     usecol:1_idx0:41.25   4.7950577620E+02      3.8649887879E-02      prof_0.02            
     usecol:1_idx0:43.75   4.9603393480E+02      3.8649887879E-02      prof_0.02            
     usecol:1_idx0:46.25   4.9934807780E+02      3.8649887879E-02      prof_0.02            
     usecol:1_idx0:48.75   4.9990694380E+02      3.8649887879E-02      prof_0.02            
     usecol:1_idx0:51.25   4.9998792280E+02      3.8649887879E-02      prof_0.02            
     usecol:1_idx0:53.75   4.9999997360E+02      3.8649887879E-02      prof_0.02            
     usecol:1_idx0:56.25   5.0000000000E+02      3.8649887879E-02      prof_0.02            
     usecol:1_idx0:58.75   5.0000000000E+02      3.8649887879E-02      prof_0.02            
     usecol:1_idx0:61.25   5.0000000000E+02      3.8649887879E-02      prof_0.02            
     usecol:1_idx0:63.75   5.0000000000E+02      3.8649887879E-02      prof_0.02            
     usecol:1_idx0:66.25   5.0000000000E+02      3.8649887879E-02      prof_0.02            
     usecol:1_idx0:68.75   4.9999999300E+02      3.8649887879E-02      prof_0.02            
     usecol:1_idx0:71.25   1.0000000000E+30      0.0000000000E+00      prof_0.02            
     usecol:2_idx0:18.75   1.0000000000E+30      0.0000000000E+00      prof_0.2             
     usecol:2_idx0:21.25   4.0809627910E+02      9.2413246967E-03      prof_0.2             
     usecol:2_idx0:23.75   4.2882684150E+02      9.2413246967E-03      prof_0.2             
     usecol:2_idx0:26.25   4.4375643680E+02      9.2413246967E-03      prof_0.2             
     usecol:2_idx0:28.75   4.5701156580E+02      9.2413246967E-03      prof_0.2             
     usecol:2_idx0:31.25   4.6975145850E+02      9.2413246967E-03      prof_0.2             
     usecol:2_idx0:33.75   4.7873207460E+02      9.2413246967E-03      prof_0.2             
     usecol:2_idx0:36.25   4.0665165620E+01      9.2413246967E-03      prof_0.2             
     usecol:2_idx0:38.75   4.2857169280E+01      9.2413246967E-03      prof_0.2             
     usecol:2_idx0:41.25   4.9921626290E+01      9.2413246967E-03      prof_0.2             
     usecol:2_idx0:43.75   6.6687353640E+01      9.2413246967E-03      prof_0.2             
     usecol:2_idx0:46.25   9.7692725650E+01      9.2413246967E-03      prof_0.2             
     usecol:2_idx0:48.75   1.4446963580E+02      9.2413246967E-03      prof_0.2             
     usecol:2_idx0:51.25   2.0284188310E+02      9.2413246967E-03      prof_0.2             
     usecol:2_idx0:53.75   4.8908220620E+02      9.2413246967E-03      prof_0.2             
     usecol:2_idx0:56.25   4.9975435800E+02      9.2413246967E-03      prof_0.2             
     usecol:2_idx0:58.75   4.9999629670E+02      9.2413246967E-03      prof_0.2             
     usecol:2_idx0:61.25   4.9999996190E+02      9.2413246967E-03      prof_0.2             
     usecol:2_idx0:63.75   4.9999999970E+02      9.2413246967E-03      prof_0.2             
     usecol:2_idx0:66.25   4.9999999990E+02      9.2413246967E-03      prof_0.2             
     usecol:2_idx0:68.75   4.9999930910E+02      9.2413246967E-03      prof_0.2             
     usecol:2_idx0:71.25   1.0000000000E+30      0.0000000000E+00      prof_0.2             
     usecol:3_idx0:18.75   1.0000000000E+30      0.0000000000E+00      prof_0.5             
     usecol:3_idx0:21.25   3.0102590320E+02      8.1707426419E-03      prof_0.5             
     usecol:3_idx0:23.75   3.3532533170E+02      8.1707426419E-03      prof_0.5             
     usecol:3_idx0:26.25   3.6347687760E+02      8.1707426419E-03      prof_0.5             
     usecol:3_idx0:28.75   3.8997243580E+02      8.1707426419E-03      prof_0.5             
     usecol:3_idx0:31.25   4.1658886200E+02      8.1707426419E-03      prof_0.5             
     usecol:3_idx0:33.75   4.3777617940E+02      8.1707426419E-03      prof_0.5             
     usecol:3_idx0:36.25   3.6959506500E+01      8.1707426419E-03      prof_0.5             
     usecol:3_idx0:38.75   3.7219574740E+01      8.1707426419E-03      prof_0.5             
     usecol:3_idx0:41.25   3.7500506100E+01      8.1707426419E-03      prof_0.5             
     usecol:3_idx0:43.75   3.7801012290E+01      8.1707426419E-03      prof_0.5             
     usecol:3_idx0:46.25   3.8119171300E+01      8.1707426419E-03      prof_0.5             
     usecol:3_idx0:48.75   3.8485707450E+01      8.1707426419E-03      prof_0.5             
     usecol:3_idx0:51.25   3.9071369400E+01      8.1707426419E-03      prof_0.5             
     usecol:3_idx0:53.75   4.1617888570E+02      8.1707426419E-03      prof_0.5             
     usecol:3_idx0:56.25   4.9244986270E+02      8.1707426419E-03      prof_0.5             
     usecol:3_idx0:58.75   4.9959091150E+02      8.1707426419E-03      prof_0.5             
     usecol:3_idx0:61.25   4.9998583990E+02      8.1707426419E-03      prof_0.5             
     usecol:3_idx0:63.75   4.9999968860E+02      8.1707426419E-03      prof_0.5             
     usecol:3_idx0:66.25   4.9999999450E+02      8.1707426419E-03      prof_0.5             
     usecol:3_idx0:68.75   4.9999573540E+02      8.1707426419E-03      prof_0.5             
     usecol:3_idx0:71.25   1.0000000000E+30      0.0000000000E+00      prof_0.5             
     usecol:4_idx0:18.75   1.0000000000E+30      0.0000000000E+00      prof_1.0             
     usecol:4_idx0:21.25   1.8140810350E+02      7.7616381915E-03      prof_1.0             
     usecol:4_idx0:23.75   2.1626586210E+02      7.7616381915E-03      prof_1.0             
     usecol:4_idx0:26.25   2.4939040810E+02      7.7616381915E-03      prof_1.0             
     usecol:4_idx0:28.75   2.8365709180E+02      7.7616381915E-03      prof_1.0             
     usecol:4_idx0:31.25   3.2072965940E+02      7.7616381915E-03      prof_1.0             
     usecol:4_idx0:33.75   3.5495610670E+02      7.7616381915E-03      prof_1.0             
     usecol:4_idx0:36.25   3.0087045160E+01      7.7616381915E-03      prof_1.0             
     usecol:4_idx0:38.75   3.0417780320E+01      7.7616381915E-03      prof_1.0             
     usecol:4_idx0:41.25   3.0767388510E+01      7.7616381915E-03      prof_1.0             
     usecol:4_idx0:43.75   3.1132328890E+01      7.7616381915E-03      prof_1.0             
     usecol:4_idx0:46.25   3.1501757920E+01      7.7616381915E-03      prof_1.0             
     usecol:4_idx0:48.75   3.1874128420E+01      7.7616381915E-03      prof_1.0             
     usecol:4_idx0:51.25   3.2327172660E+01      7.7616381915E-03      prof_1.0             
     usecol:4_idx0:53.75   3.1285497410E+02      7.7616381915E-03      prof_1.0             
     usecol:4_idx0:56.25   4.6012900110E+02      7.7616381915E-03      prof_1.0             
     usecol:4_idx0:58.75   4.9486287250E+02      7.7616381915E-03      prof_1.0             
     usecol:4_idx0:61.25   4.9958019580E+02      7.7616381915E-03      prof_1.0             
     usecol:4_idx0:63.75   4.9997841060E+02      7.7616381915E-03      prof_1.0             
     usecol:4_idx0:66.25   4.9999934170E+02      7.7616381915E-03      prof_1.0             
     usecol:4_idx0:68.75   4.9998328020E+02      7.7616381915E-03      prof_1.0             
     usecol:4_idx0:71.25   1.0000000000E+30      0.0000000000E+00      prof_1.0             
     usecol:5_idx0:18.75   1.0000000000E+30      0.0000000000E+00      prof_1.5             
     usecol:5_idx0:21.25   1.0939509670E+02      7.3549217733E-03      prof_1.5             
     usecol:5_idx0:23.75   1.3630700140E+02      7.3549217733E-03      prof_1.5             
     usecol:5_idx0:26.25   1.6439300050E+02      7.3549217733E-03      prof_1.5             
     usecol:5_idx0:28.75   1.9572000400E+02      7.3549217733E-03      prof_1.5             
     usecol:5_idx0:31.25   2.3192668500E+02      7.3549217733E-03      prof_1.5             
     usecol:5_idx0:33.75   2.6875544380E+02      7.3549217733E-03      prof_1.5             
     usecol:5_idx0:36.25   2.2858072830E+01      7.3549217733E-03      prof_1.5             
     usecol:5_idx0:38.75   2.3187329560E+01      7.3549217733E-03      prof_1.5             
     usecol:5_idx0:41.25   2.3533712600E+01      7.3549217733E-03      prof_1.5             
     usecol:5_idx0:43.75   2.3894740870E+01      7.3549217733E-03      prof_1.5             
     usecol:5_idx0:46.25   2.4262256940E+01      7.3549217733E-03      prof_1.5             
     usecol:5_idx0:48.75   2.4635129130E+01      7.3549217733E-03      prof_1.5             
     usecol:5_idx0:51.25   2.5069897950E+01      7.3549217733E-03      prof_1.5             
     usecol:5_idx0:53.75   2.3603757330E+02      7.3549217733E-03      prof_1.5             