pcf
* control data
             restart          estimation
        56       220         4         0        10
         3         2              single               point
   2.000000E+01  -3.000000E+00   3.000000E-01   1.000000E-02        -7
   1.000000E+01   1.000000E+01   1.000000E-03
   1.000000E-01
         0   1.000000E-02         3         3   1.000000E-02         3
         0         0         0
* singular value decomposition
         1
  10000000    1.000000E-06
1
* parameter groups
in_flows               relative              1.0000000000E-02      0.0 switch                2.0000000000E+00      parabolic             1.0000000000E-05      5.0000000000E-01      smaller              
out_flows              relative              1.0000000000E-02      0.0 switch                2.0000000000E+00      parabolic             1.0000000000E-05      5.0000000000E-01      smaller              
model                  relative              1.0000000000E-02      0.0 switch                2.0000000000E+00      parabolic             1.0000000000E-05      5.0000000000E-01      smaller              
tot                    relative              1.0000000000E-02      0.0 switch                2.0000000000E+00      parabolic             1.0000000000E-05      5.0000000000E-01      smaller              
* parameter data
                             in_inst:0_usecol:1_direct_idx0:18.75  log                   factor                5.0000000000E-01      1.0000000000E-08      1.0000000000E+08      in_flows              1.0000000000E+00      0.0000000000E+00      1          
                            out_inst:0_usecol:2_direct_idx0:18.75  log                   factor                -5.0000000000E-01     1.0000000000E-08      1.0000000000E+08      out_flows             1.0000000000E+00      0.0000000000E+00      1          
                             in_inst:0_usecol:1_direct_idx0:21.25  log                   factor                5.0000000000E-01      1.0000000000E-08      1.0000000000E+08      in_flows              1.0000000000E+00      0.0000000000E+00      1          
                            out_inst:0_usecol:2_direct_idx0:21.25  log                   factor                -5.0000000000E-01     1.0000000000E-08      1.0000000000E+08      out_flows             1.0000000000E+00      0.0000000000E+00      1          
                             in_inst:0_usecol:1_direct_idx0:23.75  log                   factor                5.0000000000E-01      1.0000000000E-08      1.0000000000E+08      in_flows              1.0000000000E+00      0.0000000000E+00      1          
                            out_inst:0_usecol:2_direct_idx0:23.75  log                   factor                -5.0000000000E-01     1.0000000000E-08      1.0000000000E+08      out_flows             1.0000000000E+00      0.0000000000E+00      1          
                             in_inst:0_usecol:1_direct_idx0:26.25  log                   factor                5.0000000000E-01      1.0000000000E-08      1.0000000000E+08      in_flows              1.0000000000E+00      0.0000000000E+00      1          
                            out_inst:0_usecol:2_direct_idx0:26.25  log                   factor                -5.0000000000E-01     1.0000000000E-08      1.0000000000E+08      out_flows             1.0000000000E+00      0.0000000000E+00      1          
                             in_inst:0_usecol:1_direct_idx0:28.75  log                   factor                5.0000000000E-01      1.0000000000E-08      1.0000000000E+08      in_flows              1.0000000000E+00      0.0000000000E+00      1          
                            out_inst:0_usecol:2_direct_idx0:28.75  log                   factor                -5.0000000000E-01     1.0000000000E-08      1.0000000000E+08      out_flows             1.0000000000E+00      0.0000000000E+00      1          
                             in_inst:0_usecol:1_direct_idx0:31.25  log                   factor                5.0000000000E-01      1.0000000000E-08      1.0000000000E+08      in_flows              1.0000000000E+00      0.0000000000E+00      1          
                            out_inst:0_usecol:2_direct_idx0:31.25  log                   factor                -5.0000000000E-01     1.0000000000E-08      1.0000000000E+08      out_flows             1.0000000000E+00      0.0000000000E+00      1          
                             in_inst:0_usecol:1_direct_idx0:33.75  log                   factor                5.0000000000E-01      1.0000000000E-08      1.0000000000E+08      in_flows              1.0000000000E+00      0.0000000000E+00      1          
                            out_inst:0_usecol:2_direct_idx0:33.75  log                   factor                -5.0000000000E-01     1.0000000000E-08      1.0000000000E+08      out_flows             1.0000000000E+00      0.0000000000E+00      1          
                             in_inst:0_usecol:1_direct_idx0:36.25  log                   factor                5.0000000000E-01      1.0000000000E-08      1.0000000000E+08      in_flows              1.0000000000E+00      0.0000000000E+00      1          
                            out_inst:0_usecol:2_direct_idx0:36.25  log                   factor                -5.0000000000E-01     1.0000000000E-08      1.0000000000E+08      out_flows             1.0000000000E+00      0.0000000000E+00      1          
                             in_inst:0_usecol:1_direct_idx0:38.75  log                   factor                5.0000000000E-01      1.0000000000E-08      1.0000000000E+08      in_flows              1.0000000000E+00      0.0000000000E+00      1          
                            out_inst:0_usecol:2_direct_idx0:38.75  log                   factor                -5.0000000000E-01     1.0000000000E-08      1.0000000000E+08      out_flows             1.0000000000E+00      0.0000000000E+00      1          
                             in_inst:0_usecol:1_direct_idx0:41.25  log                   factor                5.0000000000E-01      1.0000000000E-08      1.0000000000E+08      in_flows              1.0000000000E+00      0.0000000000E+00      1          
                            out_inst:0_usecol:2_direct_idx0:41.25  log                   factor                -5.0000000000E-01     1.0000000000E-08      1.0000000000E+08      out_flows             1.0000000000E+00      0.0000000000E+00      1          
                             in_inst:0_usecol:1_direct_idx0:43.75  log                   factor                5.0000000000E-01      1.0000000000E-08      1.0000000000E+08      in_flows              1.0000000000E+00      0.0000000000E+00      1          
                            out_inst:0_usecol:2_direct_idx0:43.75  log                   factor                -5.0000000000E-01     1.0000000000E-08      1.0000000000E+08      out_flows             1.0000000000E+00      0.0000000000E+00      1          
                             in_inst:0_usecol:1_direct_idx0:46.25  log                   factor                5.0000000000E-01      1.0000000000E-08      1.0000000000E+08      in_flows              1.0000000000E+00      0.0000000000E+00      1          
                            out_inst:0_usecol:2_direct_idx0:46.25  log                   factor                -5.0000000000E-01     1.0000000000E-08      1.0000000000E+08      out_flows             1.0000000000E+00      0.0000000000E+00      1          
                             in_inst:0_usecol:1_direct_idx0:48.75  log                   factor                5.0000000000E-01      1.0000000000E-08      1.0000000000E+08      in_flows              1.0000000000E+00      0.0000000000E+00      1          
                            out_inst:0_usecol:2_direct_idx0:48.75  log                   factor                -5.0000000000E-01     1.0000000000E-08      1.0000000000E+08      out_flows             1.0000000000E+00      0.0000000000E+00      1          
                             in_inst:0_usecol:1_direct_idx0:51.25  log                   factor                5.0000000000E-01      1.0000000000E-08      1.0000000000E+08      in_flows              1.0000000000E+00      0.0000000000E+00      1          
                            out_inst:0_usecol:2_direct_idx0:51.25  log                   factor                -5.0000000000E-01     1.0000000000E-08      1.0000000000E+08      out_flows             1.0000000000E+00      0.0000000000E+00      1          
                             in_inst:0_usecol:1_direct_idx0:53.75  log                   factor                5.0000000000E-01      1.0000000000E-08      1.0000000000E+08      in_flows              1.0000000000E+00      0.0000000000E+00      1          
                            out_inst:0_usecol:2_direct_idx0:53.75  log                   factor                -5.0000000000E-01     1.0000000000E-08      1.0000000000E+08      out_flows             1.0000000000E+00      0.0000000000E+00      1          
                             in_inst:0_usecol:1_direct_idx0:56.25  log                   factor                5.0000000000E-01      1.0000000000E-08      1.0000000000E+08      in_flows              1.0000000000E+00      0.0000000000E+00      1          
                            out_inst:0_usecol:2_direct_idx0:56.25  log                   factor                -5.0000000000E-01     1.0000000000E-08      1.0000000000E+08      out_flows             1.0000000000E+00      0.0000000000E+00      1          
                             in_inst:0_usecol:1_direct_idx0:58.75  log                   factor                5.0000000000E-01      1.0000000000E-08      1.0000000000E+08      in_flows              1.0000000000E+00      0.0000000000E+00      1          
                            out_inst:0_usecol:2_direct_idx0:58.75  log                   factor                -5.0000000000E-01     1.0000000000E-08      1.0000000000E+08      out_flows             1.0000000000E+00      0.0000000000E+00      1          
                             in_inst:0_usecol:1_direct_idx0:61.25  log                   factor                5.0000000000E-01      1.0000000000E-08      1.0000000000E+08      in_flows              1.0000000000E+00      0.0000000000E+00      1          
                            out_inst:0_usecol:2_direct_idx0:61.25  log                   factor                -5.0000000000E-01     1.0000000000E-08      1.0000000000E+08      out_flows             1.0000000000E+00      0.0000000000E+00      1          
                             in_inst:0_usecol:1_direct_idx0:63.75  log                   factor                5.0000000000E-01      1.0000000000E-08      1.0000000000E+08      in_flows              1.0000000000E+00      0.0000000000E+00      1          
                            out_inst:0_usecol:2_direct_idx0:63.75  log                   factor                -5.0000000000E-01     1.0000000000E-08      1.0000000000E+08      out_flows             1.0000000000E+00      0.0000000000E+00      1          
                             in_inst:0_usecol:1_direct_idx0:66.25  log                   factor                5.0000000000E-01      1.0000000000E-08      1.0000000000E+08      in_flows              1.0000000000E+00      0.0000000000E+00      1          
                            out_inst:0_usecol:2_direct_idx0:66.25  log                   factor                -5.0000000000E-01     1.0000000000E-08      1.0000000000E+08      out_flows             1.0000000000E+00      0.0000000000E+00      1          
                             in_inst:0_usecol:1_direct_idx0:68.75  log                   factor                5.0000000000E-01      1.0000000000E-08      1.0000000000E+08      in_flows              1.0000000000E+00      0.0000000000E+00      1          
                            out_inst:0_usecol:2_direct_idx0:68.75  log                   factor                -5.0000000000E-01     1.0000000000E-08      1.0000000000E+08      out_flows             1.0000000000E+00      0.0000000000E+00      1          
                             in_inst:0_usecol:1_direct_idx0:71.25  log                   factor                5.0000000000E-01      1.0000000000E-08      1.0000000000E+08      in_flows              1.0000000000E+00      0.0000000000E+00      1          
                            out_inst:0_usecol:2_direct_idx0:71.25  log                   factor                -5.0000000000E-01     1.0000000000E-08      1.0000000000E+08      out_flows             1.0000000000E+00      0.0000000000E+00      1          
                                       tot_inst:0_usecol:1_direct  log                   factor                1.0000000000E-01      0.0000000000E+00      1.0000000000E+03      tot                   1.0000000000E+00      0.0000000000E+00      1          
                      p_inst:0_usecol:1_direct_idx0:Boreholedepth  fixed                 factor                7.1250000000E+01      -1.0000000000E+01     1.0000000000E+01      model                 1.0000000000E+00      0.0000000000E+00      1          
        p_inst:0_usecol:1_direct_idx0:Spatialdiscretizationofgrid  fixed                 factor                2.5000000000E+00      -1.0000000000E+01     1.0000000000E+01      model                 1.0000000000E+00      0.0000000000E+00      1          
p_inst:0_usecol:1_direct_idx0:Constantboreholecross-sectionalarea  fixed                 factor                3.1415927000E-02      -1.0000000000E+01     1.0000000000E+01      model                 1.0000000000E+00      0.0000000000E+00      1          
                       p_inst:0_usecol:1_direct_idx0:Dispersivity  fixed                 factor                1.2500000000E+00      -1.0000000000E+01     1.0000000000E+01      model                 1.0000000000E+00      0.0000000000E+00      1          
               p_inst:0_usecol:1_direct_idx0:Diffusioncoefficient  fixed                 factor                1.0000000000E-09      -1.0000000000E+01     1.0000000000E+01      model                 1.0000000000E+00      0.0000000000E+00      1          
   p_inst:0_usecol:1_direct_idx0:Tracerconcentrationofwaterinflow  fixed                 factor                0.0000000000E+00      -1.0000000000E+01     1.0000000000E+01      model                 1.0000000000E+00      0.0000000000E+00      1          
                   p_inst:0_usecol:1_direct_idx0:Watertemperature  fixed                 factor                2.8500000000E+01      -1.0000000000E+01     1.0000000000E+01      model                 1.0000000000E+00      0.0000000000E+00      1          
                           p_inst:0_usecol:1_direct_idx0:AlphaMin  fixed                 factor                2.0000000000E-01      -1.0000000000E+01     1.0000000000E+01      model                 1.0000000000E+00      0.0000000000E+00      1          
                           p_inst:0_usecol:1_direct_idx0:AlphaMax  fixed                 factor                1.5000000000E+00      -1.0000000000E+01     1.0000000000E+01      model                 1.0000000000E+00      0.0000000000E+00      1          
                            p_inst:0_usecol:1_direct_idx0:FlowMin  fixed                 factor                0.0000000000E+00      -1.0000000000E+01     1.0000000000E+01      model                 1.0000000000E+00      0.0000000000E+00      1          
                            p_inst:0_usecol:1_direct_idx0:FlowMax  fixed                 factor                2.0000000000E+00      -1.0000000000E+01     1.0000000000E+01      model                 1.0000000000E+00      0.0000000000E+00      1          
* observation groups
flow_in              
flow_out             
prof_0.02            
prof_0.2             
prof_0.5             
prof_1.0             
prof_1.5             
prof_2.0             
prof_3.0             
prof_6.0             
* observation data
flow__usecol:1_idx0:18.75  1.0000000000E+00      1.0000000000E+00      flow_in              
flow__usecol:1_idx0:21.25  1.0000000000E+00      1.0000000000E+00      flow_in              
flow__usecol:1_idx0:23.75  1.0000000000E+00      1.0000000000E+00      flow_in              
flow__usecol:1_idx0:26.25  1.0000000000E+00      1.0000000000E+00      flow_in              
flow__usecol:1_idx0:28.75  1.0000000000E+00      1.0000000000E+00      flow_in              
flow__usecol:1_idx0:31.25  1.0000000000E+00      1.0000000000E+00      flow_in              
flow__usecol:1_idx0:33.75  1.0000000000E+00      1.0000000000E+00      flow_in              
flow__usecol:1_idx0:36.25  1.0000000000E+00      1.0000000000E+00      flow_in              
flow__usecol:1_idx0:38.75  1.0000000000E+00      1.0000000000E+00      flow_in              
flow__usecol:1_idx0:41.25  1.0000000000E+00      1.0000000000E+00      flow_in              
flow__usecol:1_idx0:43.75  1.0000000000E+00      1.0000000000E+00      flow_in              
flow__usecol:1_idx0:46.25  1.0000000000E+00      1.0000000000E+00      flow_in              
flow__usecol:1_idx0:48.75  1.0000000000E+00      1.0000000000E+00      flow_in              
flow__usecol:1_idx0:51.25  1.0000000000E+00      1.0000000000E+00      flow_in              
flow__usecol:1_idx0:53.75  1.0000000000E+00      1.0000000000E+00      flow_in              
flow__usecol:1_idx0:56.25  1.0000000000E+00      1.0000000000E+00      flow_in              
flow__usecol:1_idx0:58.75  1.0000000000E+00      1.0000000000E+00      flow_in              
flow__usecol:1_idx0:61.25  1.0000000000E+00      1.0000000000E+00      flow_in              
flow__usecol:1_idx0:63.75  1.0000000000E+00      1.0000000000E+00      flow_in              
flow__usecol:1_idx0:66.25  1.0000000000E+00      1.0000000000E+00      flow_in              
flow__usecol:1_idx0:68.75  1.0000000000E+00      1.0000000000E+00      flow_in              
flow__usecol:1_idx0:71.25  1.0000000000E+00      1.0000000000E+00      flow_in              
flow__usecol:2_idx0:18.75  -1.0000000000E+00     1.0000000000E+00      flow_out             
flow__usecol:2_idx0:21.25  -1.0000000000E+00     1.0000000000E+00      flow_out             
flow__usecol:2_idx0:23.75  -1.0000000000E+00     1.0000000000E+00      flow_out             
flow__usecol:2_idx0:26.25  -1.0000000000E+00     1.0000000000E+00      flow_out             
flow__usecol:2_idx0:28.75  -1.0000000000E+00     1.0000000000E+00      flow_out             
flow__usecol:2_idx0:31.25  -1.0000000000E+00     1.0000000000E+00      flow_out             
flow__usecol:2_idx0:33.75  -1.0000000000E+00     1.0000000000E+00      flow_out             
flow__usecol:2_idx0:36.25  -1.0000000000E+00     1.0000000000E+00      flow_out             
flow__usecol:2_idx0:38.75  -1.0000000000E+00     1.0000000000E+00      flow_out             
flow__usecol:2_idx0:41.25  -1.0000000000E+00     1.0000000000E+00      flow_out             
flow__usecol:2_idx0:43.75  -1.0000000000E+00     1.0000000000E+00      flow_out             
flow__usecol:2_idx0:46.25  -1.0000000000E+00     1.0000000000E+00      flow_out             
flow__usecol:2_idx0:48.75  -1.0000000000E+00     1.0000000000E+00      flow_out             
flow__usecol:2_idx0:51.25  -1.0000000000E+00     1.0000000000E+00      flow_out             
flow__usecol:2_idx0:53.75  -1.0000000000E+00     1.0000000000E+00      flow_out             
flow__usecol:2_idx0:56.25  -1.0000000000E+00     1.0000000000E+00      flow_out             
flow__usecol:2_idx0:58.75  -1.0000000000E+00     1.0000000000E+00      flow_out             
flow__usecol:2_idx0:61.25  -1.0000000000E+00     1.0000000000E+00      flow_out             
flow__usecol:2_idx0:63.75  -1.0000000000E+00     1.0000000000E+00      flow_out             
flow__usecol:2_idx0:66.25  -1.0000000000E+00     1.0000000000E+00      flow_out             
flow__usecol:2_idx0:68.75  -1.0000000000E+00     1.0000000000E+00      flow_out             
flow__usecol:2_idx0:71.25  -1.0000000000E+00     1.0000000000E+00      flow_out             
     usecol:1_idx0:18.75   1.0000000000E+30      1.0000000000E+00      prof_0.02            
     usecol:1_idx0:21.25   4.8994254280E+02      1.0000000000E+00      prof_0.02            
     usecol:1_idx0:23.75   4.9260480220E+02      1.0000000000E+00      prof_0.02            
     usecol:1_idx0:26.25   4.9433445460E+02      1.0000000000E+00      prof_0.02            
     usecol:1_idx0:28.75   4.9582867030E+02      1.0000000000E+00      prof_0.02            
     usecol:1_idx0:31.25   4.9722718970E+02      1.0000000000E+00      prof_0.02            
     usecol:1_idx0:33.75   4.9841497540E+02      1.0000000000E+00      prof_0.02            
     usecol:1_idx0:36.25   2.5549098730E+02      1.0000000000E+00      prof_0.02            
     usecol:1_idx0:38.75   4.1666500910E+02      1.0000000000E+00      prof_0.02            
     usecol:1_idx0:41.25   4.7950577620E+02      1.0000000000E+00      prof_0.02            
     usecol:1_idx0:43.75   4.9603393480E+02      1.0000000000E+00      prof_0.02            
     usecol:1_idx0:46.25   4.9934807780E+02      1.0000000000E+00      prof_0.02            
     usecol:1_idx0:48.75   4.9990694380E+02      1.0000000000E+00      prof_0.02            
     usecol:1_idx0:51.25   4.9998792280E+02      1.0000000000E+00      prof_0.02            
     usecol:1_idx0:53.75   4.9999997360E+02      1.0000000000E+00      prof_0.02            
     usecol:1_idx0:56.25   5.0000000000E+02      1.0000000000E+00      prof_0.02            
     usecol:1_idx0:58.75   5.0000000000E+02      1.0000000000E+00      prof_0.02            
     usecol:1_idx0:61.25   5.0000000000E+02      1.0000000000E+00      prof_0.02            
     usecol:1_idx0:63.75   5.0000000000E+02      1.0000000000E+00      prof_0.02            
     usecol:1_idx0:66.25   5.0000000000E+02      1.0000000000E+00      prof_0.02            
     usecol:1_idx0:68.75   4.9999999300E+02      1.0000000000E+00      prof_0.02            
     usecol:1_idx0:71.25   1.0000000000E+30      1.0000000000E+00      prof_0.02            
     usecol:2_idx0:18.75   1.0000000000E+30      1.0000000000E+00      prof_0.2             
     usecol:2_idx0:21.25   4.0809627910E+02      1.0000000000E+00      prof_0.2             
     usecol:2_idx0:23.75   4.2882684150E+02      1.0000000000E+00      prof_0.2             
     usecol:2_idx0:26.25   4.4375643680E+02      1.0000000000E+00      prof_0.2             
     usecol:2_idx0:28.75   4.5701156580E+02      1.0000000000E+00      prof_0.2             
     usecol:2_idx0:31.25   4.6975145850E+02      1.0000000000E+00      prof_0.2             
     usecol:2_idx0:33.75   4.7873207460E+02      1.0000000000E+00      prof_0.2             
     usecol:2_idx0:36.25   4.0665165620E+01      1.0000000000E+00      prof_0.2             
     usecol:2_idx0:38.75   4.2857169280E+01      1.0000000000E+00      prof_0.2             
     usecol:2_idx0:41.25   4.9921626290E+01      1.0000000000E+00      prof_0.2             
     usecol:2_idx0:43.75   6.6687353640E+01      1.0000000000E+00      prof_0.2             
     usecol:2_idx0:46.25   9.7692725650E+01      1.0000000000E+00      prof_0.2             
     usecol:2_idx0:48.75   1.4446963580E+02      1.0000000000E+00      prof_0.2             
     usecol:2_idx0:51.25   2.0284188310E+02      1.0000000000E+00      prof_0.2             
     usecol:2_idx0:53.75   4.8908220620E+02      1.0000000000E+00      prof_0.2             
     usecol:2_idx0:56.25   4.9975435800E+02      1.0000000000E+00      prof_0.2             
     usecol:2_idx0:58.75   4.9999629670E+02      1.0000000000E+00      prof_0.2             
     usecol:2_idx0:61.25   4.9999996190E+02      1.0000000000E+00      prof_0.2             
     usecol:2_idx0:63.75   4.9999999970E+02      1.0000000000E+00      prof_0.2             
     usecol:2_idx0:66.25   4.9999999990E+02      1.0000000000E+00      prof_0.2             
     usecol:2_idx0:68.75   4.9999930910E+02      1.0000000000E+00      prof_0.2             
     usecol:2_idx0:71.25   1.0000000000E+30      1.0000000000E+00      prof_0.2             
     usecol:3_idx0:18.75   1.0000000000E+30      1.0000000000E+00      prof_0.5             
     usecol:3_idx0:21.25   3.0102590320E+02      1.0000000000E+00      prof_0.5             
     usecol:3_idx0:23.75   3.3532533170E+02      1.0000000000E+00      prof_0.5             
     usecol:3_idx0:26.25   3.6347687760E+02      1.0000000000E+00      prof_0.5             
     usecol:3_idx0:28.75   3.8997243580E+02      1.0000000000E+00      prof_0.5             
     usecol:3_idx0:31.25   4.1658886200E+02      1.0000000000E+00      prof_0.5             
     usecol:3_idx0:33.75   4.3777617940E+02      1.0000000000E+00      prof_0.5             
     usecol:3_idx0:36.25   3.6959506500E+01      1.0000000000E+00      prof_0.5             
     usecol:3_idx0:38.75   3.7219574740E+01      1.0000000000E+00      prof_0.5             
     usecol:3_idx0:41.25   3.7500506100E+01      1.0000000000E+00      prof_0.5             
     usecol:3_idx0:43.75   3.7801012290E+01      1.0000000000E+00      prof_0.5             
     usecol:3_idx0:46.25   3.8119171300E+01      1.0000000000E+00      prof_0.5             
     usecol:3_idx0:48.75   3.8485707450E+01      1.0000000000E+00      prof_0.5             
     usecol:3_idx0:51.25   3.9071369400E+01      1.0000000000E+00      prof_0.5             
     usecol:3_idx0:53.75   4.1617888570E+02      1.0000000000E+00      prof_0.5             
     usecol:3_idx0:56.25   4.9244986270E+02      1.0000000000E+00      prof_0.5             
     usecol:3_idx0:58.75   4.9959091150E+02      1.0000000000E+00      prof_0.5             
     usecol:3_idx0:61.25   4.9998583990E+02      1.0000000000E+00      prof_0.5             
     usecol:3_idx0:63.75   4.9999968860E+02      1.0000000000E+00      prof_0.5             
     usecol:3_idx0:66.25   4.9999999450E+02      1.0000000000E+00      prof_0.5             
     usecol:3_idx0:68.75   4.9999573540E+02      1.0000000000E+00      prof_0.5             
     usecol:3_idx0:71.25   1.0000000000E+30      1.0000000000E+00      prof_0.5             
     usecol:4_idx0:18.75   1.0000000000E+30      1.0000000000E+00      prof_1.0             
     usecol:4_idx0:21.25   1.8140810350E+02      1.0000000000E+00      prof_1.0             
     usecol:4_idx0:23.75   2.1626586210E+02      1.0000000000E+00      prof_1.0             
     usecol:4_idx0:26.25   2.4939040810E+02      1.0000000000E+00      prof_1.0             
     usecol:4_idx0:28.75   2.8365709180E+02      1.0000000000E+00      prof_1.0             
     usecol:4_idx0:31.25   3.2072965940E+02      1.0000000000E+00      prof_1.0             
     usecol:4_idx0:33.75   3.5495610670E+02      1.0000000000E+00      prof_1.0             
     usecol:4_idx0:36.25   3.0087045160E+01      1.0000000000E+00      prof_1.0             
     usecol:4_idx0:38.75   3.0417780320E+01      1.0000000000E+00      prof_1.0             
     usecol:4_idx0:41.25   3.0767388510E+01      1.0000000000E+00      prof_1.0             
     usecol:4_idx0:43.75   3.1132328890E+01      1.0000000000E+00      prof_1.0             
     usecol:4_idx0:46.25   3.1501757920E+01      1.0000000000E+00      prof_1.0             
     usecol:4_idx0:48.75   3.1874128420E+01      1.0000000000E+00      prof_1.0             
     usecol:4_idx0:51.25   3.2327172660E+01      1.0000000000E+00      prof_1.0             
     usecol:4_idx0:53.75   3.1285497410E+02      1.0000000000E+00      prof_1.0             
     usecol:4_idx0:56.25   4.6012900110E+02      1.0000000000E+00      prof_1.0             
     usecol:4_idx0:58.75   4.9486287250E+02      1.0000000000E+00      prof_1.0             
     usecol:4_idx0:61.25   4.9958019580E+02      1.0000000000E+00      prof_1.0             
     usecol:4_idx0:63.75   4.9997841060E+02      1.0000000000E+00      prof_1.0             
     usecol:4_idx0:66.25   4.9999934170E+02      1.0000000000E+00      prof_1.0             
     usecol:4_idx0:68.75   4.9998328020E+02      1.0000000000E+00      prof_1.0             
     usecol:4_idx0:71.25   1.0000000000E+30      1.0000000000E+00      prof_1.0             
     usecol:5_idx0:18.75   1.0000000000E+30      1.0000000000E+00      prof_1.5             
     usecol:5_idx0:21.25   1.0939509670E+02      1.0000000000E+00      prof_1.5             
     usecol:5_idx0:23.75   1.3630700140E+02      1.0000000000E+00      prof_1.5             
     usecol:5_idx0:26.25   1.6439300050E+02      1.0000000000E+00      prof_1.5             
     usecol:5_idx0:28.75   1.9572000400E+02      1.0000000000E+00      prof_1.5             
     usecol:5_idx0:31.25   2.3192668500E+02      1.0000000000E+00      prof_1.5             
     usecol:5_idx0:33.75   2.6875544380E+02      1.0000000000E+00      prof_1.5             
     usecol:5_idx0:36.25   2.2858072830E+01      1.0000000000E+00      prof_1.5             
     usecol:5_idx0:38.75   2.3187329560E+01      1.0000000000E+00      prof_1.5             
     usecol:5_idx0:41.25   2.3533712600E+01      1.0000000000E+00      prof_1.5             
     usecol:5_idx0:43.75   2.3894740870E+01      1.0000000000E+00      prof_1.5             
     usecol:5_idx0:46.25   2.4262256940E+01      1.0000000000E+00      prof_1.5             
     usecol:5_idx0:48.75   2.4635129130E+01      1.0000000000E+00      prof_1.5             
     usecol:5_idx0:51.25   2.5069897950E+01      1.0000000000E+00      prof_1.5             
     usecol:5_idx0:53.75   2.3603757330E+02      1.0000000000E+00      prof_1.5             
     usecol:5_idx0:56.25   4.1418948030E+02      1.0000000000E+00      prof_1.5             
     usecol:5_idx0:58.75   4.8260567090E+02      1.0000000000E+00      prof_1.5             
     usecol:5_idx0:61.25   4.9773743660E+02      1.0000000000E+00      prof_1.5             
     usecol:5_idx0:63.75   4.9981390660E+02      1.0000000000E+00      prof_1.5             