pcf
* control data
             restart          estimation
        56       220         6        44        12
         3         2              single               point
   2.000000E+01  -3.000000E+00   3.000000E-01   1.000000E-02        -7
   1.000000E+01   1.000000E+01   1.000000E-03
   1.000000E-01
         0   1.000000E-02         3         3   1.000000E-02         3
         0         0         0
* singular value decomposition
         1
  10000000    1.000000E-06
1
* parameter groups
disp                   relative              1.0000000000E-02      0.0 switch                2.0000000000E+00      parabolic             1.0000000000E-05      5.0000000000E-01      smaller              
diff                   relative              1.0000000000E-02      0.0 switch                2.0000000000E+00      parabolic             1.0000000000E-05      5.0000000000E-01      smaller              
in_flows               relative              1.0000000000E-02      0.0 switch                2.0000000000E+00      parabolic             1.0000000000E-05      5.0000000000E-01      smaller              
out_flows              relative              1.0000000000E-02      0.0 switch                2.0000000000E+00      parabolic             1.0000000000E-05      5.0000000000E-01      smaller              
model                  relative              1.0000000000E-02      0.0 switch                2.0000000000E+00      parabolic             1.0000000000E-05      5.0000000000E-01      smaller              
tot                    relative              1.0000000000E-02      0.0 switch                2.0000000000E+00      parabolic             1.0000000000E-05      5.0000000000E-01      smaller              
* parameter data
                             in_inst:0_usecol:1_direct_idx0:18.75  log                   relative              8.9153734617E-01      1.0000000000E-08      1.0000000000E+08      in_flows              1.0000000000E+00      0.0000000000E+00      1          
                            out_inst:0_usecol:2_direct_idx0:18.75  log                   relative              3.6572329486E-01      1.0000000000E-08      1.0000000000E+08      out_flows             -1.0000000000E+00     0.0000000000E+00      1          
                             in_inst:0_usecol:1_direct_idx0:21.25  log                   relative              1.6445261733E+00      1.0000000000E-08      1.0000000000E+08      in_flows              1.0000000000E+00      0.0000000000E+00      1          
                            out_inst:0_usecol:2_direct_idx0:21.25  log                   relative              2.6359082236E-01      1.0000000000E-08      1.0000000000E+08      out_flows             -1.0000000000E+00     0.0000000000E+00      1          
                             in_inst:0_usecol:1_direct_idx0:23.75  log                   relative              1.2738562126E+00      1.0000000000E-08      1.0000000000E+08      in_flows              1.0000000000E+00      0.0000000000E+00      1          
                            out_inst:0_usecol:2_direct_idx0:23.75  log                   relative              2.2234260893E-01      1.0000000000E-08      1.0000000000E+08      out_flows             -1.0000000000E+00     0.0000000000E+00      1          
                             in_inst:0_usecol:1_direct_idx0:26.25  log                   relative              1.0735907752E+00      1.0000000000E-08      1.0000000000E+08      in_flows              1.0000000000E+00      0.0000000000E+00      1          
                            out_inst:0_usecol:2_direct_idx0:26.25  log                   relative              2.1381339924E-01      1.0000000000E-08      1.0000000000E+08      out_flows             -1.0000000000E+00     0.0000000000E+00      1          
                             in_inst:0_usecol:1_direct_idx0:28.75  log                   relative              9.0292422993E-01      1.0000000000E-08      1.0000000000E+08      in_flows              1.0000000000E+00      0.0000000000E+00      1          
                            out_inst:0_usecol:2_direct_idx0:28.75  log                   relative              2.3203342285E-01      1.0000000000E-08      1.0000000000E+08      out_flows             -1.0000000000E+00     0.0000000000E+00      1          
                             in_inst:0_usecol:1_direct_idx0:31.25  log                   relative              7.2871661891E-01      1.0000000000E-08      1.0000000000E+08      in_flows              1.0000000000E+00      0.0000000000E+00      1          
                            out_inst:0_usecol:2_direct_idx0:31.25  log                   relative              2.8576467061E-01      1.0000000000E-08      1.0000000000E+08      out_flows             -1.0000000000E+00     0.0000000000E+00      1          
                             in_inst:0_usecol:1_direct_idx0:33.75  log                   relative              6.5008324785E-01      1.0000000000E-08      1.0000000000E+08      in_flows              1.0000000000E+00      0.0000000000E+00      1          
                            out_inst:0_usecol:2_direct_idx0:33.75  log                   relative              4.1347081443E-01      1.0000000000E-08      1.0000000000E+08      out_flows             -1.0000000000E+00     0.0000000000E+00      1          
                             in_inst:0_usecol:1_direct_idx0:36.25  log                   relative              5.0986509617E+00      1.0000000000E-08      1.0000000000E+08      in_flows              1.0000000000E+00      0.0000000000E+00      1          
                            out_inst:0_usecol:2_direct_idx0:36.25  log                   relative              7.8280181666E-01      1.0000000000E-08      1.0000000000E+08      out_flows             -1.0000000000E+00     0.0000000000E+00      1          
                             in_inst:0_usecol:1_direct_idx0:38.75  log                   relative              5.2183496009E-01      1.0000000000E-08      1.0000000000E+08      in_flows              1.0000000000E+00      0.0000000000E+00      1          
                            out_inst:0_usecol:2_direct_idx0:38.75  log                   relative              7.1864902349E-01      1.0000000000E-08      1.0000000000E+08      out_flows             -1.0000000000E+00     0.0000000000E+00      1          
                             in_inst:0_usecol:1_direct_idx0:41.25  log                   relative              3.7192528402E-01      1.0000000000E-08      1.0000000000E+08      in_flows              1.0000000000E+00      0.0000000000E+00      1          
                            out_inst:0_usecol:2_direct_idx0:41.25  log                   relative              6.2312864814E-01      1.0000000000E-08      1.0000000000E+08      out_flows             -1.0000000000E+00     0.0000000000E+00      1          
                             in_inst:0_usecol:1_direct_idx0:43.75  log                   relative              3.4886369595E-01      1.0000000000E-08      1.0000000000E+08      in_flows              1.0000000000E+00      0.0000000000E+00      1          
                            out_inst:0_usecol:2_direct_idx0:43.75  log                   relative              6.0724315137E-01      1.0000000000E-08      1.0000000000E+08      out_flows             -1.0000000000E+00     0.0000000000E+00      1          
                             in_inst:0_usecol:1_direct_idx0:46.25  log                   relative              3.3111043748E-01      1.0000000000E-08      1.0000000000E+08      in_flows              1.0000000000E+00      0.0000000000E+00      1          
                            out_inst:0_usecol:2_direct_idx0:46.25  log                   relative              6.9352225443E-01      1.0000000000E-08      1.0000000000E+08      out_flows             -1.0000000000E+00     0.0000000000E+00      1          
                             in_inst:0_usecol:1_direct_idx0:48.75  log                   relative              3.9873758768E-01      1.0000000000E-08      1.0000000000E+08      in_flows              1.0000000000E+00      0.0000000000E+00      1          
                            out_inst:0_usecol:2_direct_idx0:48.75  log                   relative              9.6605297504E-01      1.0000000000E-08      1.0000000000E+08      out_flows             -1.0000000000E+00     0.0000000000E+00      1          
                             in_inst:0_usecol:1_direct_idx0:51.25  log                   relative              2.6410294797E+00      1.0000000000E-08      1.0000000000E+08      in_flows              1.0000000000E+00      0.0000000000E+00      1          
                            out_inst:0_usecol:2_direct_idx0:51.25  log                   relative              1.8201779378E+00      1.0000000000E-08      1.0000000000E+08      out_flows             -1.0000000000E+00     0.0000000000E+00      1          
                             in_inst:0_usecol:1_direct_idx0:53.75  log                   relative              3.3487893014E-01      1.0000000000E-08      1.0000000000E+08      in_flows              1.0000000000E+00      0.0000000000E+00      1          
                            out_inst:0_usecol:2_direct_idx0:53.75  log                   relative              9.6763243673E-01      1.0000000000E-08      1.0000000000E+08      out_flows             -1.0000000000E+00     0.0000000000E+00      1          
                             in_inst:0_usecol:1_direct_idx0:56.25  log                   relative              2.6185887993E-01      1.0000000000E-08      1.0000000000E+08      in_flows              1.0000000000E+00      0.0000000000E+00      1          
                            out_inst:0_usecol:2_direct_idx0:56.25  log                   relative              5.9980723321E-01      1.0000000000E-08      1.0000000000E+08      out_flows             -1.0000000000E+00     0.0000000000E+00      1          
                             in_inst:0_usecol:1_direct_idx0:58.75  log                   relative              2.6521540295E-01      1.0000000000E-08      1.0000000000E+08      in_flows              1.0000000000E+00      0.0000000000E+00      1          
                            out_inst:0_usecol:2_direct_idx0:58.75  log                   relative              4.8319722579E-01      1.0000000000E-08      1.0000000000E+08      out_flows             -1.0000000000E+00     0.0000000000E+00      1          
                             in_inst:0_usecol:1_direct_idx0:61.25  log                   relative              2.5610908110E-01      1.0000000000E-08      1.0000000000E+08      in_flows              1.0000000000E+00      0.0000000000E+00      1          
                            out_inst:0_usecol:2_direct_idx0:61.25  log                   relative              4.6613929658E-01      1.0000000000E-08      1.0000000000E+08      out_flows             -1.0000000000E+00     0.0000000000E+00      1          
                             in_inst:0_usecol:1_direct_idx0:63.75  log                   relative              2.3424958115E-01      1.0000000000E-08      1.0000000000E+08      in_flows              1.0000000000E+00      0.0000000000E+00      1          
                            out_inst:0_usecol:2_direct_idx0:63.75  log                   relative              4.9206957155E-01      1.0000000000E-08      1.0000000000E+08      out_flows             -1.0000000000E+00     0.0000000000E+00      1          
                             in_inst:0_usecol:1_direct_idx0:66.25  log                   relative              2.0643994372E-01      1.0000000000E-08      1.0000000000E+08      in_flows              1.0000000000E+00      0.0000000000E+00      1          
                            out_inst:0_usecol:2_direct_idx0:66.25  log                   relative              5.1634254043E-01      1.0000000000E-08      1.0000000000E+08      out_flows             -1.0000000000E+00     0.0000000000E+00      1          
                             in_inst:0_usecol:1_direct_idx0:68.75  log                   relative              1.9076784113E-01      1.0000000000E-08      1.0000000000E+08      in_flows              1.0000000000E+00      0.0000000000E+00      1          
                            out_inst:0_usecol:2_direct_idx0:68.75  log                   relative              4.8986714123E-01      1.0000000000E-08      1.0000000000E+08      out_flows             -1.0000000000E+00     0.0000000000E+00      1          
                             in_inst:0_usecol:1_direct_idx0:71.25  log                   relative              4.0433717076E-01      1.0000000000E-08      1.0000000000E+08      in_flows              1.0000000000E+00      0.0000000000E+00      1          
                            out_inst:0_usecol:2_direct_idx0:71.25  log                   relative              4.3395797524E-01      1.0000000000E-08      1.0000000000E+08      out_flows             -1.0000000000E+00     0.0000000000E+00      1          
                                       tot_inst:0_usecol:1_direct  log                   relative              8.0677443998E-01      0.0000000000E+00      1.0000000000E+03      tot                   1.0000000000E+00      0.0000000000E+00      1          
                      p_inst:0_usecol:1_direct_idx0:boreholedepth  fixed                 relative              7.1250000000E+01      -1.0000000000E+01     1.0000000000E+01      model                 1.0000000000E+00      0.0000000000E+00      1          
        p_inst:0_usecol:1_direct_idx0:spatialdiscretizationofgrid  fixed                 relative              2.5000000000E+00      -1.0000000000E+01     1.0000000000E+01      model                 1.0000000000E+00      0.0000000000E+00      1          
p_inst:0_usecol:1_direct_idx0:constantboreholecross-sectionalarea  fixed                 relative              3.1415927000E-02      -1.0000000000E+01     1.0000000000E+01      model                 1.0000000000E+00      0.0000000000E+00      1          
                       p_inst:0_usecol:1_direct_idx0:dispersivity  log                   relative              1.3837649556E+00      1.0000000000E-03      1.0000000000E+01      disp                  1.0000000000E+00      0.0000000000E+00      1          
               p_inst:0_usecol:1_direct_idx0:diffusioncoefficient  log                   relative              1.0000000000E-09      1.0000000000E-12      1.0000000000E-06      diff                  1.0000000000E+00      0.0000000000E+00      1          
   p_inst:0_usecol:1_direct_idx0:tracerconcentrationofwaterinflow  fixed                 relative              0.0000000000E+00      -1.0000000000E+01     1.0000000000E+01      model                 1.0000000000E+00      0.0000000000E+00      1          
                   p_inst:0_usecol:1_direct_idx0:watertemperature  fixed                 relative              2.8500000000E+01      -1.0000000000E+01     1.0000000000E+01      model                 1.0000000000E+00      0.0000000000E+00      1          
                           p_inst:0_usecol:1_direct_idx0:alphamin  fixed                 relative              2.0000000000E-01      -1.0000000000E+01     1.0000000000E+01      model                 1.0000000000E+00      0.0000000000E+00      1          
                           p_inst:0_usecol:1_direct_idx0:alphamax  fixed                 relative              1.5000000000E+00      -1.0000000000E+01     1.0000000000E+01      model                 1.0000000000E+00      0.0000000000E+00      1          
                            p_inst:0_usecol:1_direct_idx0:flowmin  fixed                 relative              0.0000000000E+00      -1.0000000000E+01     1.0000000000E+01      model                 1.0000000000E+00      0.0000000000E+00      1          
                            p_inst:0_usecol:1_direct_idx0:flowmax  fixed                 relative              2.0000000000E+00      -1.0000000000E+01     1.0000000000E+01      model                 1.0000000000E+00      0.0000000000E+00      1          
* observation groups
flow_in              
flow_out             
prof_0.02            
prof_0.2             
prof_0.5             
prof_1.0             
prof_1.5             
prof_2.0             
prof_3.0             
prof_6.0             
reg_in_flows         
reg_out_flows        
* observation data
flow__usecol:1_idx0:18.75  1.0000000000E-02      0.0000000000E+00      flow_in              
flow__usecol:1_idx0:21.25  1.0000000000E-02      0.0000000000E+00      flow_in              
flow__usecol:1_idx0:23.75  1.0000000000E-02      0.0000000000E+00      flow_in              
flow__usecol:1_idx0:26.25  1.0000000000E-02      0.0000000000E+00      flow_in              
flow__usecol:1_idx0:28.75  1.0000000000E-02      0.0000000000E+00      flow_in              
flow__usecol:1_idx0:31.25  1.0000000000E-02      0.0000000000E+00      flow_in              
flow__usecol:1_idx0:33.75  1.0000000000E-02      0.0000000000E+00      flow_in              
flow__usecol:1_idx0:36.25  1.0000000000E-02      0.0000000000E+00      flow_in              
flow__usecol:1_idx0:38.75  1.0000000000E-02      0.0000000000E+00      flow_in              
flow__usecol:1_idx0:41.25  1.0000000000E-02      0.0000000000E+00      flow_in              
flow__usecol:1_idx0:43.75  1.0000000000E-02      0.0000000000E+00      flow_in              
flow__usecol:1_idx0:46.25  1.0000000000E-02      0.0000000000E+00      flow_in              
flow__usecol:1_idx0:48.75  1.0000000000E-02      0.0000000000E+00      flow_in              
flow__usecol:1_idx0:51.25  1.0000000000E-02      0.0000000000E+00      flow_in              
flow__usecol:1_idx0:53.75  1.0000000000E-02      0.0000000000E+00      flow_in              
flow__usecol:1_idx0:56.25  1.0000000000E-02      0.0000000000E+00      flow_in              
flow__usecol:1_idx0:58.75  1.0000000000E-02      0.0000000000E+00      flow_in              
flow__usecol:1_idx0:61.25  1.0000000000E-02      0.0000000000E+00      flow_in              
flow__usecol:1_idx0:63.75  1.0000000000E-02      0.0000000000E+00      flow_in              
flow__usecol:1_idx0:66.25  1.0000000000E-02      0.0000000000E+00      flow_in              
flow__usecol:1_idx0:68.75  1.0000000000E-02      0.0000000000E+00      flow_in              
flow__usecol:1_idx0:71.25  1.0000000000E-02      0.0000000000E+00      flow_in              
flow__usecol:2_idx0:18.75  -1.0000000000E-02     0.0000000000E+00      flow_out             
flow__usecol:2_idx0:21.25  -1.0000000000E-02     0.0000000000E+00      flow_out             
flow__usecol:2_idx0:23.75  -1.0000000000E-02     0.0000000000E+00      flow_out             
flow__usecol:2_idx0:26.25  -1.0000000000E-02     0.0000000000E+00      flow_out             
flow__usecol:2_idx0:28.75  -1.0000000000E-02     0.0000000000E+00      flow_out             
flow__usecol:2_idx0:31.25  -1.0000000000E-02     0.0000000000E+00      flow_out             
flow__usecol:2_idx0:33.75  -1.0000000000E-02     0.0000000000E+00      flow_out             
flow__usecol:2_idx0:36.25  -1.0000000000E-02     0.0000000000E+00      flow_out             
flow__usecol:2_idx0:38.75  -1.0000000000E-02     0.0000000000E+00      flow_out             
flow__usecol:2_idx0:41.25  -1.0000000000E-02     0.0000000000E+00      flow_out             
flow__usecol:2_idx0:43.75  -1.0000000000E-02     0.0000000000E+00      flow_out             
flow__usecol:2_idx0:46.25  -1.0000000000E-02     0.0000000000E+00      flow_out             
flow__usecol:2_idx0:48.75  -1.0000000000E-02     0.0000000000E+00      flow_out             
flow__usecol:2_idx0:51.25  -1.0000000000E-02     0.0000000000E+00      flow_out             
flow__usecol:2_idx0:53.75  -1.0000000000E-02     0.0000000000E+00      flow_out             
flow__usecol:2_idx0:56.25  -1.0000000000E-02     0.0000000000E+00      flow_out             
flow__usecol:2_idx0:58.75  -1.0000000000E-02     0.0000000000E+00      flow_out             
flow__usecol:2_idx0:61.25  -1.0000000000E-02     0.0000000000E+00      flow_out             
flow__usecol:2_idx0:63.75  -1.0000000000E-02     0.0000000000E+00      flow_out             
flow__usecol:2_idx0:66.25  -1.0000000000E-02     0.0000000000E+00      flow_out             
flow__usecol:2_idx0:68.75  -1.0000000000E-02     0.0000000000E+00      flow_out             
flow__usecol:2_idx0:71.25  -1.0000000000E-02     0.0000000000E+00      flow_out             
     usecol:1_idx0:18.75   1.0000000000E+30      0.0000000000E+00      prof_0.02            
     usecol:1_idx0:21.25   4.9145973110E+02      2.9592740293E-01      prof_0.02            
     usecol:1_idx0:23.75   4.9323684010E+02      2.9592740293E-01      prof_0.02            
     usecol:1_idx0:26.25   4.9429266640E+02      2.9592740293E-01      prof_0.02            
     usecol:1_idx0:28.75   4.9517352770E+02      2.9592740293E-01      prof_0.02            
     usecol:1_idx0:31.25   4.9596816600E+02      2.9592740293E-01      prof_0.02            
     usecol:1_idx0:33.75   4.9670020110E+02      2.9592740293E-01      prof_0.02            
     usecol:1_idx0:36.25   4.7244057230E+02      2.9592740293E-01      prof_0.02            
     usecol:1_idx0:38.75   4.9633198190E+02      2.9592740293E-01      prof_0.02            
     usecol:1_idx0:41.25   4.9772137100E+02      2.9592740293E-01      prof_0.02            
     usecol:1_idx0:43.75   4.9801802060E+02      2.9592740293E-01      prof_0.02            
     usecol:1_idx0:46.25   4.9816055550E+02      2.9592740293E-01      prof_0.02            
     usecol:1_idx0:48.75   4.9828418160E+02      2.9592740293E-01      prof_0.02            
     usecol:1_idx0:51.25   4.8436832950E+02      2.9592740293E-01      prof_0.02            
     usecol:1_idx0:53.75   4.9809858450E+02      2.9592740293E-01      prof_0.02            
     usecol:1_idx0:56.25   4.9848799600E+02      2.9592740293E-01      prof_0.02            
     usecol:1_idx0:58.75   4.9858118870E+02      2.9592740293E-01      prof_0.02            
     usecol:1_idx0:61.25   4.9867077580E+02      2.9592740293E-01      prof_0.02            
     usecol:1_idx0:63.75   4.9876805540E+02      2.9592740293E-01      prof_0.02            
     usecol:1_idx0:66.25   4.9888583990E+02      2.9592740293E-01      prof_0.02            
     usecol:1_idx0:68.75   4.9909632990E+02      2.9592740293E-01      prof_0.02            
     usecol:1_idx0:71.25   1.0000000000E+30      0.0000000000E+00      prof_0.02            
     usecol:2_idx0:18.75   1.0000000000E+30      0.0000000000E+00      prof_0.2             
     usecol:2_idx0:21.25   4.2089391940E+02      3.9728195994E-02      prof_0.2             
     usecol:2_idx0:23.75   4.3520156160E+02      3.9728195994E-02      prof_0.2             
     usecol:2_idx0:26.25   4.4451219860E+02      3.9728195994E-02      prof_0.2             
     usecol:2_idx0:28.75   4.5236770730E+02      3.9728195994E-02      prof_0.2             
     usecol:2_idx0:31.25   4.5957418040E+02      3.9728195994E-02      prof_0.2             
     usecol:2_idx0:33.75   4.6564031390E+02      3.9728195994E-02      prof_0.2             
     usecol:2_idx0:36.25   3.2092399080E+02      3.9728195994E-02      prof_0.2             
     usecol:2_idx0:38.75   4.1926259000E+02      3.9728195994E-02      prof_0.2             
     usecol:2_idx0:41.25   4.6275208780E+02      3.9728195994E-02      prof_0.2             
     usecol:2_idx0:43.75   4.7674278690E+02      3.9728195994E-02      prof_0.2             
     usecol:2_idx0:46.25   4.8085666980E+02      3.9728195994E-02      prof_0.2             
     usecol:2_idx0:48.75   4.8206958690E+02      3.9728195994E-02      prof_0.2             
     usecol:2_idx0:51.25   3.9552181330E+02      3.9728195994E-02      prof_0.2             
     usecol:2_idx0:53.75   4.6499242980E+02      3.9728195994E-02      prof_0.2             
     usecol:2_idx0:56.25   4.8241782550E+02      3.9728195994E-02      prof_0.2             
     usecol:2_idx0:58.75   4.8562812140E+02      3.9728195994E-02      prof_0.2             
     usecol:2_idx0:61.25   4.8673499670E+02      3.9728195994E-02      prof_0.2             
     usecol:2_idx0:63.75   4.8771437570E+02      3.9728195994E-02      prof_0.2             
     usecol:2_idx0:66.25   4.8888170780E+02      3.9728195994E-02      prof_0.2             
     usecol:2_idx0:68.75   4.9095032980E+02      3.9728195994E-02      prof_0.2             
     usecol:2_idx0:71.25   1.0000000000E+30      0.0000000000E+00      prof_0.2             
     usecol:3_idx0:18.75   1.0000000000E+30      0.0000000000E+00      prof_0.5             
     usecol:3_idx0:21.25   3.2513500180E+02      2.0424026981E-02      prof_0.5             
     usecol:3_idx0:23.75   3.5014176960E+02      2.0424026981E-02      prof_0.5             
     usecol:3_idx0:26.25   3.6845981540E+02      2.0424026981E-02      prof_0.5             
     usecol:3_idx0:28.75   3.8448449300E+02      2.0424026981E-02      prof_0.5             
     usecol:3_idx0:31.25   3.9958457740E+02      2.0424026981E-02      prof_0.5             
     usecol:3_idx0:33.75   4.1208601160E+02      2.0424026981E-02      prof_0.5             
     usecol:3_idx0:36.25   2.3305787140E+02      2.0424026981E-02      prof_0.5             
     usecol:3_idx0:38.75   2.9338086210E+02      2.0424026981E-02      prof_0.5             
     usecol:3_idx0:41.25   3.6017350070E+02      2.0424026981E-02      prof_0.5             
     usecol:3_idx0:43.75   4.0950431110E+02      2.0424026981E-02      prof_0.5             
     usecol:3_idx0:46.25   4.3735919800E+02      2.0424026981E-02      prof_0.5             
     usecol:3_idx0:48.75   4.4944669170E+02      2.0424026981E-02      prof_0.5             
     usecol:3_idx0:51.25   3.3803664230E+02      2.0424026981E-02      prof_0.5             
     usecol:3_idx0:53.75   3.9978464210E+02      2.0424026981E-02      prof_0.5             
     usecol:3_idx0:56.25   4.4259661010E+02      2.0424026981E-02      prof_0.5             
     usecol:3_idx0:58.75   4.6029863470E+02      2.0424026981E-02      prof_0.5             
     usecol:3_idx0:61.25   4.6633623460E+02      2.0424026981E-02      prof_0.5             
     usecol:3_idx0:63.75   4.6935825710E+02      2.0424026981E-02      prof_0.5             
     usecol:3_idx0:66.25   4.7230073990E+02      2.0424026981E-02      prof_0.5             
     usecol:3_idx0:68.75   4.7733330740E+02      2.0424026981E-02      prof_0.5             
     usecol:3_idx0:71.25   1.0000000000E+30      0.0000000000E+00      prof_0.5             
     usecol:4_idx0:18.75   1.0000000000E+30      0.0000000000E+00      prof_1.0             
     usecol:4_idx0:21.25   2.1154400340E+02      1.2581117785E-02      prof_1.0             
     usecol:4_idx0:23.75   2.3933467910E+02      1.2581117785E-02      prof_1.0             
     usecol:4_idx0:26.25   2.6267679140E+02      1.2581117785E-02      prof_1.0             
     usecol:4_idx0:28.75   2.8459844190E+02      1.2581117785E-02      prof_1.0             
     usecol:4_idx0:31.25   3.0629349420E+02      1.2581117785E-02      prof_1.0             
     usecol:4_idx0:33.75   3.2545760220E+02      1.2581117785E-02      prof_1.0             
     usecol:4_idx0:36.25   1.7641086630E+02      1.2581117785E-02      prof_1.0             
     usecol:4_idx0:38.75   1.9483418050E+02      1.2581117785E-02      prof_1.0             
     usecol:4_idx0:41.25   2.2764402220E+02      1.2581117785E-02      prof_1.0             
     usecol:4_idx0:43.75   2.7179119980E+02      1.2581117785E-02      prof_1.0             
     usecol:4_idx0:46.25   3.1837220450E+02      1.2581117785E-02      prof_1.0             
     usecol:4_idx0:48.75   3.5709097730E+02      1.2581117785E-02      prof_1.0             
     usecol:4_idx0:51.25   2.7604071540E+02      1.2581117785E-02      prof_1.0             
     usecol:4_idx0:53.75   3.1906535770E+02      1.2581117785E-02      prof_1.0             
     usecol:4_idx0:56.25   3.6628641790E+02      1.2581117785E-02      prof_1.0             
     usecol:4_idx0:58.75   4.0423572020E+02      1.2581117785E-02      prof_1.0             
     usecol:4_idx0:61.25   4.2643407310E+02      1.2581117785E-02      prof_1.0             
     usecol:4_idx0:63.75   4.3756120440E+02      1.2581117785E-02      prof_1.0             
     usecol:4_idx0:66.25   4.4472074140E+02      1.2581117785E-02      prof_1.0             
     usecol:4_idx0:68.75   4.5456771420E+02      1.2581117785E-02      prof_1.0             
     usecol:4_idx0:71.25   1.0000000000E+30      0.0000000000E+00      prof_1.0             
     usecol:5_idx0:18.75   1.0000000000E+30      0.0000000000E+00      prof_1.5             
     usecol:5_idx0:21.25   1.3769246450E+02      9.7165192222E-03      prof_1.5             
     usecol:5_idx0:23.75   1.6110360000E+02      9.7165192222E-03      prof_1.5             
     usecol:5_idx0:26.25   1.8262596230E+02      9.7165192222E-03      prof_1.5             
     usecol:5_idx0:28.75   2.0415093630E+02      9.7165192222E-03      prof_1.5             
     usecol:5_idx0:31.25   2.2652689960E+02      9.7165192222E-03      prof_1.5             
     usecol:5_idx0:33.75   2.4768023900E+02      9.7165192222E-03      prof_1.5             
     usecol:5_idx0:36.25   1.3546626770E+02      9.7165192222E-03      prof_1.5             
     usecol:5_idx0:38.75   1.4617738170E+02      9.7165192222E-03      prof_1.5             
     usecol:5_idx0:41.25   1.6172259090E+02      9.7165192222E-03      prof_1.5             
     usecol:5_idx0:43.75   1.8451003650E+02      9.7165192222E-03      prof_1.5             
     usecol:5_idx0:46.25   2.1532878610E+02      9.7165192222E-03      prof_1.5             
     usecol:5_idx0:48.75   2.5086174750E+02      9.7165192222E-03      prof_1.5             
     usecol:5_idx0:51.25   2.0204469800E+02      9.7165192222E-03      prof_1.5             
     usecol:5_idx0:53.75   2.4891242870E+02      9.7165192222E-03      prof_1.5             