pcf
* control data
             restart          estimation
       132       480         6         0         8
         3         2              single               point
   1.000000E+01  -3.000000E+00   3.000000E-01   3.000000E-02        10
   3.000000E+01   3.000000E+01   1.000000E-03
   1.000000E-01
         0   1.000000E-02         3         3   1.000000E-02         3
         0         0         0
* singular value decomposition
         1
  10000000    1.000000E-06
1
* parameter groups
diff                   relative              1.0000000000E-02      0.0 switch                2.0000000000E+00      parabolic             1.0000000000E-05      5.0000000000E-01      smaller              
disp                   relative              1.0000000000E-02      0.0 switch                2.0000000000E+00      parabolic             1.0000000000E-05      5.0000000000E-01      smaller              
out_flows              relative              1.0000000000E-02      0.1 switch                2.0000000000E+00      parabolic             1.0000000000E-05      5.0000000000E-01      smaller              
in_flows               relative              1.0000000000E-02      0.1 switch                2.0000000000E+00      parabolic             1.0000000000E-05      5.0000000000E-01      smaller              
model                  relative              1.0000000000E-02      0.0 switch                2.0000000000E+00      parabolic             1.0000000000E-05      5.0000000000E-01      smaller              
tot                    relative              1.0000000000E-02      0.0 switch                2.0000000000E+00      parabolic             1.0000000000E-05      5.0000000000E-01      smaller              
* parameter data
                                          in_inst:0_usecol:1_direct_idx0:29.0  log                   relative              6.5144443410E-01      1.0000000000E-08      1.0000000000E+08      in_flows              1.0000000000E+00      0.0000000000E+00      1          
                                         out_inst:0_usecol:2_direct_idx0:29.0  log                   relative              2.3788471317E-01      1.0000000000E-08      1.0000000000E+08      out_flows             -1.0000000000E+00     0.0000000000E+00      1          
                                          in_inst:0_usecol:1_direct_idx0:30.0  log                   relative              1.3454483877E+01      1.0000000000E-08      1.0000000000E+08      in_flows              1.0000000000E+00      0.0000000000E+00      1          
                                         out_inst:0_usecol:2_direct_idx0:30.0  log                   relative              1.1691782109E-01      1.0000000000E-08      1.0000000000E+08      out_flows             -1.0000000000E+00     0.0000000000E+00      1          
                                          in_inst:0_usecol:1_direct_idx0:31.0  log                   relative              3.3914572643E-01      1.0000000000E-08      1.0000000000E+08      in_flows              1.0000000000E+00      0.0000000000E+00      1          
                                         out_inst:0_usecol:2_direct_idx0:31.0  log                   relative              1.1719053647E-01      1.0000000000E-08      1.0000000000E+08      out_flows             -1.0000000000E+00     0.0000000000E+00      1          
                                          in_inst:0_usecol:1_direct_idx0:32.0  log                   relative              3.1097745250E+00      1.0000000000E-08      1.0000000000E+08      in_flows              1.0000000000E+00      0.0000000000E+00      1          
                                         out_inst:0_usecol:2_direct_idx0:32.0  log                   relative              1.2141030398E-01      1.0000000000E-08      1.0000000000E+08      out_flows             -1.0000000000E+00     0.0000000000E+00      1          
                                          in_inst:0_usecol:1_direct_idx0:33.0  log                   relative              2.2349017584E+00      1.0000000000E-08      1.0000000000E+08      in_flows              1.0000000000E+00      0.0000000000E+00      1          
                                         out_inst:0_usecol:2_direct_idx0:33.0  log                   relative              1.2240969332E-01      1.0000000000E-08      1.0000000000E+08      out_flows             -1.0000000000E+00     0.0000000000E+00      1          
                                          in_inst:0_usecol:1_direct_idx0:34.0  log                   relative              2.7077422543E+00      1.0000000000E-08      1.0000000000E+08      in_flows              1.0000000000E+00      0.0000000000E+00      1          
                                         out_inst:0_usecol:2_direct_idx0:34.0  log                   relative              1.2890115469E-01      1.0000000000E-08      1.0000000000E+08      out_flows             -1.0000000000E+00     0.0000000000E+00      1          
                                          in_inst:0_usecol:1_direct_idx0:35.0  log                   relative              2.4009100985E+00      1.0000000000E-08      1.0000000000E+08      in_flows              1.0000000000E+00      0.0000000000E+00      1          
                                         out_inst:0_usecol:2_direct_idx0:35.0  log                   relative              1.3749188718E-01      1.0000000000E-08      1.0000000000E+08      out_flows             -1.0000000000E+00     0.0000000000E+00      1          
                                          in_inst:0_usecol:1_direct_idx0:36.0  log                   relative              1.8612749962E+00      1.0000000000E-08      1.0000000000E+08      in_flows              1.0000000000E+00      0.0000000000E+00      1          
                                         out_inst:0_usecol:2_direct_idx0:36.0  log                   relative              1.4543619078E-01      1.0000000000E-08      1.0000000000E+08      out_flows             -1.0000000000E+00     0.0000000000E+00      1          
                                          in_inst:0_usecol:1_direct_idx0:37.0  log                   relative              3.3756674236E-01      1.0000000000E-08      1.0000000000E+08      in_flows              1.0000000000E+00      0.0000000000E+00      1          
                                         out_inst:0_usecol:2_direct_idx0:37.0  log                   relative              1.4438027660E-01      1.0000000000E-08      1.0000000000E+08      out_flows             -1.0000000000E+00     0.0000000000E+00      1          
                                          in_inst:0_usecol:1_direct_idx0:38.0  log                   relative              3.5955423629E-01      1.0000000000E-08      1.0000000000E+08      in_flows              1.0000000000E+00      0.0000000000E+00      1          
                                         out_inst:0_usecol:2_direct_idx0:38.0  log                   relative              1.5015759234E-01      1.0000000000E-08      1.0000000000E+08      out_flows             -1.0000000000E+00     0.0000000000E+00      1          
                                          in_inst:0_usecol:1_direct_idx0:39.0  log                   relative              3.5183149826E-01      1.0000000000E-08      1.0000000000E+08      in_flows              1.0000000000E+00      0.0000000000E+00      1          
                                         out_inst:0_usecol:2_direct_idx0:39.0  log                   relative              1.5984942255E-01      1.0000000000E-08      1.0000000000E+08      out_flows             -1.0000000000E+00     0.0000000000E+00      1          
                                          in_inst:0_usecol:1_direct_idx0:40.0  log                   relative              3.8994398946E-01      1.0000000000E-08      1.0000000000E+08      in_flows              1.0000000000E+00      0.0000000000E+00      1          
                                         out_inst:0_usecol:2_direct_idx0:40.0  log                   relative              1.7106800657E-01      1.0000000000E-08      1.0000000000E+08      out_flows             -1.0000000000E+00     0.0000000000E+00      1          
                                          in_inst:0_usecol:1_direct_idx0:41.0  log                   relative              5.5317360534E-01      1.0000000000E-08      1.0000000000E+08      in_flows              1.0000000000E+00      0.0000000000E+00      1          
                                         out_inst:0_usecol:2_direct_idx0:41.0  log                   relative              1.8585426085E-01      1.0000000000E-08      1.0000000000E+08      out_flows             -1.0000000000E+00     0.0000000000E+00      1          
                                          in_inst:0_usecol:1_direct_idx0:42.0  log                   relative              6.5869027289E-01      1.0000000000E-08      1.0000000000E+08      in_flows              1.0000000000E+00      0.0000000000E+00      1          
                                         out_inst:0_usecol:2_direct_idx0:42.0  log                   relative              2.0107594126E-01      1.0000000000E-08      1.0000000000E+08      out_flows             -1.0000000000E+00     0.0000000000E+00      1          
                                          in_inst:0_usecol:1_direct_idx0:43.0  log                   relative              8.5490644970E-01      1.0000000000E-08      1.0000000000E+08      in_flows              1.0000000000E+00      0.0000000000E+00      1          
                                         out_inst:0_usecol:2_direct_idx0:43.0  log                   relative              2.2414181381E-01      1.0000000000E-08      1.0000000000E+08      out_flows             -1.0000000000E+00     0.0000000000E+00      1          
                                          in_inst:0_usecol:1_direct_idx0:44.0  log                   relative              3.7323129065E-01      1.0000000000E-08      1.0000000000E+08      in_flows              1.0000000000E+00      0.0000000000E+00      1          
                                         out_inst:0_usecol:2_direct_idx0:44.0  log                   relative              2.4934448144E-01      1.0000000000E-08      1.0000000000E+08      out_flows             -1.0000000000E+00     0.0000000000E+00      1          
                                          in_inst:0_usecol:1_direct_idx0:45.0  log                   relative              3.4733806426E-01      1.0000000000E-08      1.0000000000E+08      in_flows              1.0000000000E+00      0.0000000000E+00      1          
                                         out_inst:0_usecol:2_direct_idx0:45.0  log                   relative              2.6978715933E-01      1.0000000000E-08      1.0000000000E+08      out_flows             -1.0000000000E+00     0.0000000000E+00      1          
                                          in_inst:0_usecol:1_direct_idx0:46.0  log                   relative              4.0312129245E-01      1.0000000000E-08      1.0000000000E+08      in_flows              1.0000000000E+00      0.0000000000E+00      1          
                                         out_inst:0_usecol:2_direct_idx0:46.0  log                   relative              2.8827774053E-01      1.0000000000E-08      1.0000000000E+08      out_flows             -1.0000000000E+00     0.0000000000E+00      1          
                                          in_inst:0_usecol:1_direct_idx0:47.0  log                   relative              4.4333387825E-01      1.0000000000E-08      1.0000000000E+08      in_flows              1.0000000000E+00      0.0000000000E+00      1          
                                         out_inst:0_usecol:2_direct_idx0:47.0  log                   relative              3.0482334510E-01      1.0000000000E-08      1.0000000000E+08      out_flows             -1.0000000000E+00     0.0000000000E+00      1          
                                          in_inst:0_usecol:1_direct_idx0:48.0  log                   relative              4.1448100074E-01      1.0000000000E-08      1.0000000000E+08      in_flows              1.0000000000E+00      0.0000000000E+00      1          
                                         out_inst:0_usecol:2_direct_idx0:48.0  log                   relative              3.2604988648E-01      1.0000000000E-08      1.0000000000E+08      out_flows             -1.0000000000E+00     0.0000000000E+00      1          
                                          in_inst:0_usecol:1_direct_idx0:49.0  log                   relative              3.2322646423E-01      1.0000000000E-08      1.0000000000E+08      in_flows              1.0000000000E+00      0.0000000000E+00      1          
                                         out_inst:0_usecol:2_direct_idx0:49.0  log                   relative              3.4777882089E-01      1.0000000000E-08      1.0000000000E+08      out_flows             -1.0000000000E+00     0.0000000000E+00      1          
                                          in_inst:0_usecol:1_direct_idx0:50.0  log                   relative              2.7799241239E-01      1.0000000000E-08      1.0000000000E+08      in_flows              1.0000000000E+00      0.0000000000E+00      1          
                                         out_inst:0_usecol:2_direct_idx0:50.0  log                   relative              3.6046808186E-01      1.0000000000E-08      1.0000000000E+08      out_flows             -1.0000000000E+00     0.0000000000E+00      1          
                                          in_inst:0_usecol:1_direct_idx0:51.0  log                   relative              2.5701686427E-01      1.0000000000E-08      1.0000000000E+08      in_flows              1.0000000000E+00      0.0000000000E+00      1          
                                         out_inst:0_usecol:2_direct_idx0:51.0  log                   relative              3.7377122869E-01      1.0000000000E-08      1.0000000000E+08      out_flows             -1.0000000000E+00     0.0000000000E+00      1          
                                          in_inst:0_usecol:1_direct_idx0:52.0  log                   relative              2.2231493680E-01      1.0000000000E-08      1.0000000000E+08      in_flows              1.0000000000E+00      0.0000000000E+00      1          
                                         out_inst:0_usecol:2_direct_idx0:52.0  log                   relative              4.0422154156E-01      1.0000000000E-08      1.0000000000E+08      out_flows             -1.0000000000E+00     0.0000000000E+00      1          
                                          in_inst:0_usecol:1_direct_idx0:53.0  log                   relative              2.0931984345E-01      1.0000000000E-08      1.0000000000E+08      in_flows              1.0000000000E+00      0.0000000000E+00      1          
                                         out_inst:0_usecol:2_direct_idx0:53.0  log                   relative              4.0801265458E-01      1.0000000000E-08      1.0000000000E+08      out_flows             -1.0000000000E+00     0.0000000000E+00      1          
                                          in_inst:0_usecol:1_direct_idx0:54.0  log                   relative              2.4318343870E-01      1.0000000000E-08      1.0000000000E+08      in_flows              1.0000000000E+00      0.0000000000E+00      1          
                                         out_inst:0_usecol:2_direct_idx0:54.0  log                   relative              4.1747406621E-01      1.0000000000E-08      1.0000000000E+08      out_flows             -1.0000000000E+00     0.0000000000E+00      1          
                                          in_inst:0_usecol:1_direct_idx0:55.0  log                   relative              2.8920413828E-01      1.0000000000E-08      1.0000000000E+08      in_flows              1.0000000000E+00      0.0000000000E+00      1          
                                         out_inst:0_usecol:2_direct_idx0:55.0  log                   relative              4.2012666288E-01      1.0000000000E-08      1.0000000000E+08      out_flows             -1.0000000000E+00     0.0000000000E+00      1          
                                          in_inst:0_usecol:1_direct_idx0:56.0  log                   relative              3.2019901683E-01      1.0000000000E-08      1.0000000000E+08      in_flows              1.0000000000E+00      0.0000000000E+00      1          
                                         out_inst:0_usecol:2_direct_idx0:56.0  log                   relative              4.2471337454E-01      1.0000000000E-08      1.0000000000E+08      out_flows             -1.0000000000E+00     0.0000000000E+00      1          
                                          in_inst:0_usecol:1_direct_idx0:57.0  log                   relative              3.2495169025E-01      1.0000000000E-08      1.0000000000E+08      in_flows              1.0000000000E+00      0.0000000000E+00      1          
                                         out_inst:0_usecol:2_direct_idx0:57.0  log                   relative              4.3637380750E-01      1.0000000000E-08      1.0000000000E+08      out_flows             -1.0000000000E+00     0.0000000000E+00      1          
                                          in_inst:0_usecol:1_direct_idx0:58.0  log                   relative              3.3398756689E-01      1.0000000000E-08      1.0000000000E+08      in_flows              1.0000000000E+00      0.0000000000E+00      1          
                                         out_inst:0_usecol:2_direct_idx0:58.0  log                   relative              4.3633536740E-01      1.0000000000E-08      1.0000000000E+08      out_flows             -1.0000000000E+00     0.0000000000E+00      1          
                                          in_inst:0_usecol:1_direct_idx0:59.0  log                   relative              4.0952973313E-01      1.0000000000E-08      1.0000000000E+08      in_flows              1.0000000000E+00      0.0000000000E+00      1          
                                         out_inst:0_usecol:2_direct_idx0:59.0  log                   relative              4.3746898457E-01      1.0000000000E-08      1.0000000000E+08      out_flows             -1.0000000000E+00     0.0000000000E+00      1          
                                          in_inst:0_usecol:1_direct_idx0:60.0  log                   relative              3.9517106202E-01      1.0000000000E-08      1.0000000000E+08      in_flows              1.0000000000E+00      0.0000000000E+00      1          
                                         out_inst:0_usecol:2_direct_idx0:60.0  log                   relative              4.3294834624E-01      1.0000000000E-08      1.0000000000E+08      out_flows             -1.0000000000E+00     0.0000000000E+00      1          
                                          in_inst:0_usecol:1_direct_idx0:61.0  log                   relative              3.0630642858E-01      1.0000000000E-08      1.0000000000E+08      in_flows              1.0000000000E+00      0.0000000000E+00      1          
                                         out_inst:0_usecol:2_direct_idx0:61.0  log                   relative              4.4734339903E-01      1.0000000000E-08      1.0000000000E+08      out_flows             -1.0000000000E+00     0.0000000000E+00      1          
                                          in_inst:0_usecol:1_direct_idx0:62.0  log                   relative              2.7340979601E-01      1.0000000000E-08      1.0000000000E+08      in_flows              1.0000000000E+00      0.0000000000E+00      1          
                                         out_inst:0_usecol:2_direct_idx0:62.0  log                   relative              4.4712033612E-01      1.0000000000E-08      1.0000000000E+08      out_flows             -1.0000000000E+00     0.0000000000E+00      1          
                                          in_inst:0_usecol:1_direct_idx0:63.0  log                   relative              4.3784138267E-01      1.0000000000E-08      1.0000000000E+08      in_flows              1.0000000000E+00      0.0000000000E+00      1          
                                         out_inst:0_usecol:2_direct_idx0:63.0  log                   relative              4.2847761392E-01      1.0000000000E-08      1.0000000000E+08      out_flows             -1.0000000000E+00     0.0000000000E+00      1          
                                          in_inst:0_usecol:1_direct_idx0:64.0  log                   relative              6.1329951675E-01      1.0000000000E-08      1.0000000000E+08      in_flows              1.0000000000E+00      0.0000000000E+00      1          
                                         out_inst:0_usecol:2_direct_idx0:64.0  log                   relative              4.2158204145E-01      1.0000000000E-08      1.0000000000E+08      out_flows             -1.0000000000E+00     0.0000000000E+00      1          
                                          in_inst:0_usecol:1_direct_idx0:65.0  log                   relative              6.9464446361E-01      1.0000000000E-08      1.0000000000E+08      in_flows              1.0000000000E+00      0.0000000000E+00      1          
                                         out_inst:0_usecol:2_direct_idx0:65.0  log                   relative              4.1957800755E-01      1.0000000000E-08      1.0000000000E+08      out_flows             -1.0000000000E+00     0.0000000000E+00      1          
                                          in_inst:0_usecol:1_direct_idx0:66.0  log                   relative              9.0581513481E-01      1.0000000000E-08      1.0000000000E+08      in_flows              1.0000000000E+00      0.0000000000E+00      1          
                                         out_inst:0_usecol:2_direct_idx0:66.0  log                   relative              4.1613799957E-01      1.0000000000E-08      1.0000000000E+08      out_flows             -1.0000000000E+00     0.0000000000E+00      1          
                                          in_inst:0_usecol:1_direct_idx0:67.0  log                   relative              9.6186950388E-01      1.0000000000E-08      1.0000000000E+08      in_flows              1.0000000000E+00      0.0000000000E+00      1          
                                         out_inst:0_usecol:2_direct_idx0:67.0  log                   relative              4.1395347918E-01      1.0000000000E-08      1.0000000000E+08      out_flows             -1.0000000000E+00     0.0000000000E+00      1          
                                          in_inst:0_usecol:1_direct_idx0:68.0  log                   relative              7.7107953012E-01      1.0000000000E-08      1.0000000000E+08      in_flows              1.0000000000E+00      0.0000000000E+00      1          
                                         out_inst:0_usecol:2_direct_idx0:68.0  log                   relative              4.1412397838E-01      1.0000000000E-08      1.0000000000E+08      out_flows             -1.0000000000E+00     0.0000000000E+00      1          
                                          in_inst:0_usecol:1_direct_idx0:69.0  log                   relative              6.1832486865E-01      1.0000000000E-08      1.0000000000E+08      in_flows              1.0000000000E+00      0.0000000000E+00      1          
                                         out_inst:0_usecol:2_direct_idx0:69.0  log                   relative              4.1325174313E-01      1.0000000000E-08      1.0000000000E+08      out_flows             -1.0000000000E+00     0.0000000000E+00      1          
                                          in_inst:0_usecol:1_direct_idx0:70.0  log                   relative              6.6598043389E-01      1.0000000000E-08      1.0000000000E+08      in_flows              1.0000000000E+00      0.0000000000E+00      1          
                                         out_inst:0_usecol:2_direct_idx0:70.0  log                   relative              4.1297907397E-01      1.0000000000E-08      1.0000000000E+08      out_flows             -1.0000000000E+00     0.0000000000E+00      1          
                                          in_inst:0_usecol:1_direct_idx0:71.0  log                   relative              3.9941702098E-01      1.0000000000E-08      1.0000000000E+08      in_flows              1.0000000000E+00      0.0000000000E+00      1          
                                         out_inst:0_usecol:2_direct_idx0:71.0  log                   relative              4.1361154891E-01      1.0000000000E-08      1.0000000000E+08      out_flows             -1.0000000000E+00     0.0000000000E+00      1          
                                          in_inst:0_usecol:1_direct_idx0:72.0  log                   relative              2.7989160915E-01      1.0000000000E-08      1.0000000000E+08      in_flows              1.0000000000E+00      0.0000000000E+00      1          
                                         out_inst:0_usecol:2_direct_idx0:72.0  log                   relative              4.1663765158E-01      1.0000000000E-08      1.0000000000E+08      out_flows             -1.0000000000E+00     0.0000000000E+00      1          
                                          in_inst:0_usecol:1_direct_idx0:73.0  log                   relative              2.1083875532E-01      1.0000000000E-08      1.0000000000E+08      in_flows              1.0000000000E+00      0.0000000000E+00      1          
                                         out_inst:0_usecol:2_direct_idx0:73.0  log                   relative              4.1469808354E-01      1.0000000000E-08      1.0000000000E+08      out_flows             -1.0000000000E+00     0.0000000000E+00      1          
                                          in_inst:0_usecol:1_direct_idx0:74.0  log                   relative              1.7527187249E-01      1.0000000000E-08      1.0000000000E+08      in_flows              1.0000000000E+00      0.0000000000E+00      1          
                                         out_inst:0_usecol:2_direct_idx0:74.0  log                   relative              4.1593940050E-01      1.0000000000E-08      1.0000000000E+08      out_flows             -1.0000000000E+00     0.0000000000E+00      1          
                                          in_inst:0_usecol:1_direct_idx0:75.0  log                   relative              1.6112014833E-01      1.0000000000E-08      1.0000000000E+08      in_flows              1.0000000000E+00      0.0000000000E+00      1          
                                         out_inst:0_usecol:2_direct_idx0:75.0  log                   relative              4.1752387673E-01      1.0000000000E-08      1.0000000000E+08      out_flows             -1.0000000000E+00     0.0000000000E+00      1          
                                          in_inst:0_usecol:1_direct_idx0:76.0  log                   relative              1.7475480758E-01      1.0000000000E-08      1.0000000000E+08      in_flows              1.0000000000E+00      0.0000000000E+00      1          
                                         out_inst:0_usecol:2_direct_idx0:76.0  log                   relative              4.2779681006E-01      1.0000000000E-08      1.0000000000E+08      out_flows             -1.0000000000E+00     0.0000000000E+00      1          
                                          in_inst:0_usecol:1_direct_idx0:77.0  log                   relative              2.4661670424E-01      1.0000000000E-08      1.0000000000E+08      in_flows              1.0000000000E+00      0.0000000000E+00      1          
                                         out_inst:0_usecol:2_direct_idx0:77.0  log                   relative              4.6477357568E-01      1.0000000000E-08      1.0000000000E+08      out_flows             -1.0000000000E+00     0.0000000000E+00      1          
                                          in_inst:0_usecol:1_direct_idx0:78.0  log                   relative              1.8040199453E-01      1.0000000000E-08      1.0000000000E+08      in_flows              1.0000000000E+00      0.0000000000E+00      1          
                                         out_inst:0_usecol:2_direct_idx0:78.0  log                   relative              5.4963656644E-01      1.0000000000E-08      1.0000000000E+08      out_flows             -1.0000000000E+00     0.0000000000E+00      1          
                                          in_inst:0_usecol:1_direct_idx0:79.0  log                   relative              3.5378993156E-01      1.0000000000E-08      1.0000000000E+08      in_flows              1.0000000000E+00      0.0000000000E+00      1          
                                         out_inst:0_usecol:2_direct_idx0:79.0  log                   relative              6.7753724539E-01      1.0000000000E-08      1.0000000000E+08      out_flows             -1.0000000000E+00     0.0000000000E+00      1          
                                          in_inst:0_usecol:1_direct_idx0:80.0  log                   relative              3.3147336249E-01      1.0000000000E-08      1.0000000000E+08      in_flows              1.0000000000E+00      0.0000000000E+00      1          
                                         out_inst:0_usecol:2_direct_idx0:80.0  log                   relative              6.4982454245E-01      1.0000000000E-08      1.0000000000E+08      out_flows             -1.0000000000E+00     0.0000000000E+00      1          
                                          in_inst:0_usecol:1_direct_idx0:81.0  log                   relative              2.8540709130E-01      1.0000000000E-08      1.0000000000E+08      in_flows              1.0000000000E+00      0.0000000000E+00      1          