pcf
* control data
             restart          estimation
        56       220         4         0        10
         3         2              single               point
   2.000000E+01  -3.000000E+00   3.000000E-01   1.000000E-02        -7
   1.000000E+01   1.000000E+01   1.000000E-03
   1.000000E-01
         0   1.000000E-02         3         3   1.000000E-02         3
         0         0         0
* singular value decomposition
         1
  10000000    1.000000E-06
1
* parameter groups
in_flows               relative              1.0000000000E-02      0.0 switch                2.0000000000E+00      parabolic             1.0000000000E-05      5.0000000000E-01      smaller              
out_flows              relative              1.0000000000E-02      0.0 switch                2.0000000000E+00      parabolic             1.0000000000E-05      5.0000000000E-01      smaller              
model                  relative              1.0000000000E-02      0.0 switch                2.0000000000E+00      parabolic             1.0000000000E-05      5.0000000000E-01      smaller              
tot                    relative              1.0000000000E-02      0.0 switch                2.0000000000E+00      parabolic             1.0000000000E-05      5.0000000000E-01      smaller              
* parameter data
                             in_inst:0_usecol:1_direct_idx0:18.75  log                   factor                5.0000000000E-01      1.0000000000E-08      1.0000000000E+08      in_flows              1.0000000000E+00      0.0000000000E+00      1          
                            out_inst:0_usecol:2_direct_idx0:18.75  log                   factor                -5.0000000000E-01     1.0000000000E-08      1.0000000000E+08      out_flows             1.0000000000E+00      0.0000000000E+00      1          
                             in_inst:0_usecol:1_direct_idx0:21.25  log                   factor                5.0000000000E-01      1.0000000000E-08      1.0000000000E+08      in_flows              1.0000000000E+00      0.0000000000E+00      1          
                            out_inst:0_usecol:2_direct_idx0:21.25  log                   factor                -5.0000000000E-01     1.0000000000E-08      1.0000000000E+08      out_flows             1.0000000000E+00      0.0000000000E+00      1          
                             in_inst:0_usecol:1_direct_idx0:23.75  log                   factor                5.0000000000E-01      1.0000000000E-08      1.0000000000E+08      in_flows              1.0000000000E+00      0.0000000000E+00      1          
                            out_inst:0_usecol:2_direct_idx0:23.75  log                   factor                -5.0000000000E-01     1.0000000000E-08      1.0000000000E+08      out_flows             1.0000000000E+00      0.0000000000E+00      1          
                             in_inst:0_usecol:1_direct_idx0:26.25  log                   factor                5.0000000000E-01      1.0000000000E-08      1.0000000000E+08      in_flows              1.0000000000E+00      0.0000000000E+00      1          
                            out_inst:0_usecol:2_direct_idx0:26.25  log                   factor                -5.0000000000E-01     1.0000000000E-08      1.0000000000E+08      out_flows             1.0000000000E+00      0.0000000000E+00      1          
                             in_inst:0_usecol:1_direct_idx0:28.75  log                   factor                5.0000000000E-01      1.0000000000E-08      1.0000000000E+08      in_flows              1.0000000000E+00      0.0000000000E+00      1          
                            out_inst:0_usecol:2_direct_idx0:28.75  log                   factor                -5.0000000000E-01     1.0000000000E-08      1.0000000000E+08      out_flows             1.0000000000E+00      0.0000000000E+00      1          
                             in_inst:0_usecol:1_direct_idx0:31.25  log                   factor                5.0000000000E-01      1.0000000000E-08      1.0000000000E+08      in_flows              1.0000000000E+00      0.0000000000E+00      1          
                            out_inst:0_usecol:2_direct_idx0:31.25  log                   factor                -5.0000000000E-01     1.0000000000E-08      1.0000000000E+08      out_flows             1.0000000000E+00      0.0000000000E+00      1          
                             in_inst:0_usecol:1_direct_idx0:33.75  log                   factor                5.0000000000E-01      1.0000000000E-08      1.0000000000E+08      in_flows              1.0000000000E+00      0.0000000000E+00      1          
                            out_inst:0_usecol:2_direct_idx0:33.75  log                   factor                -5.0000000000E-01     1.0000000000E-08      1.0000000000E+08      out_flows             1.0000000000E+00      0.0000000000E+00      1          
                             in_inst:0_usecol:1_direct_idx0:36.25  log                   factor                5.0000000000E-01      1.0000000000E-08      1.0000000000E+08      in_flows              1.0000000000E+00      0.0000000000E+00      1          
                            out_inst:0_usecol:2_direct_idx0:36.25  log                   factor                -5.0000000000E-01     1.0000000000E-08      1.0000000000E+08      out_flows             1.0000000000E+00      0.0000000000E+00      1          
                             in_inst:0_usecol:1_direct_idx0:38.75  log                   factor                5.0000000000E-01      1.0000000000E-08      1.0000000000E+08      in_flows              1.0000000000E+00      0.0000000000E+00      1          
                            out_inst:0_usecol:2_direct_idx0:38.75  log                   factor                -5.0000000000E-01     1.0000000000E-08      1.0000000000E+08      out_flows             1.0000000000E+00      0.0000000000E+00      1          
                             in_inst:0_usecol:1_direct_idx0:41.25  log                   factor                5.0000000000E-01      1.0000000000E-08      1.0000000000E+08      in_flows              1.0000000000E+00      0.0000000000E+00      1          
                            out_inst:0_usecol:2_direct_idx0:41.25  log                   factor                -5.0000000000E-01     1.0000000000E-08      1.0000000000E+08      out_flows             1.0000000000E+00      0.0000000000E+00      1          
                             in_inst:0_usecol:1_direct_idx0:43.75  log                   factor                5.0000000000E-01      1.0000000000E-08      1.0000000000E+08      in_flows              1.0000000000E+00      0.0000000000E+00      1          
                            out_inst:0_usecol:2_direct_idx0:43.75  log                   factor                -5.0000000000E-01     1.0000000000E-08      1.0000000000E+08      out_flows             1.0000000000E+00      0.0000000000E+00      1          
                             in_inst:0_usecol:1_direct_idx0:46.25  log                   factor                5.0000000000E-01      1.0000000000E-08      1.0000000000E+08      in_flows              1.0000000000E+00      0.0000000000E+00      1          
                            out_inst:0_usecol:2_direct_idx0:46.25  log                   factor                -5.0000000000E-01     1.0000000000E-08      1.0000000000E+08      out_flows             1.0000000000E+00      0.0000000000E+00      1          
                             in_inst:0_usecol:1_direct_idx0:48.75  log                   factor                5.0000000000E-01      1.0000000000E-08      1.0000000000E+08      in_flows              1.0000000000E+00      0.0000000000E+00      1          
                            out_inst:0_usecol:2_direct_idx0:48.75  log                   factor                -5.0000000000E-01     1.0000000000E-08      1.0000000000E+08      out_flows             1.0000000000E+00      0.0000000000E+00      1          
                             in_inst:0_usecol:1_direct_idx0:51.25  log                   factor                5.0000000000E-01      1.0000000000E-08      1.0000000000E+08      in_flows              1.0000000000E+00      0.0000000000E+00      1          
                            out_inst:0_usecol:2_direct_idx0:51.25  log                   factor                -5.0000000000E-01     1.0000000000E-08      1.0000000000E+08      out_flows             1.0000000000E+00      0.0000000000E+00      1          
                             in_inst:0_usecol:1_direct_idx0:53.75  log                   factor                5.0000000000E-01      1.0000000000E-08      1.0000000000E+08      in_flows              1.0000000000E+00      0.0000000000E+00      1          
                            out_inst:0_usecol:2_direct_idx0:53.75  log                   factor                -5.0000000000E-01     1.0000000000E-08      1.0000000000E+08      out_flows             1.0000000000E+00      0.0000000000E+00      1          
                             in_inst:0_usecol:1_direct_idx0:56.25  log                   factor                5.0000000000E-01      1.0000000000E-08      1.0000000000E+08      in_flows              1.0000000000E+00      0.0000000000E+00      1          
                            out_inst:0_usecol:2_direct_idx0:56.25  log                   factor                -5.0000000000E-01     1.0000000000E-08      1.0000000000E+08      out_flows             1.0000000000E+00      0.0000000000E+00      1          
                             in_inst:0_usecol:1_direct_idx0:58.75  log                   factor                5.0000000000E-01      1.0000000000E-08      1.0000000000E+08      in_flows              1.0000000000E+00      0.0000000000E+00      1          
                            out_inst:0_usecol:2_direct_idx0:58.75  log                   factor                -5.0000000000E-01     1.0000000000E-08      1.0000000000E+08      out_flows             1.0000000000E+00      0.0000000000E+00      1          
                             in_inst:0_usecol:1_direct_idx0:61.25  log                   factor                5.0000000000E-01      1.0000000000E-08      1.0000000000E+08      in_flows              1.0000000000E+00      0.0000000000E+00      1          
                            out_inst:0_usecol:2_direct_idx0:61.25  log                   factor                -5.0000000000E-01     1.0000000000E-08      1.0000000000E+08      out_flows             1.0000000000E+00      0.0000000000E+00      1          
                             in_inst:0_usecol:1_direct_idx0:63.75  log                   factor                5.0000000000E-01      1.0000000000E-08      1.0000000000E+08      in_flows              1.0000000000E+00      0.0000000000E+00      1          
                            out_inst:0_usecol:2_direct_idx0:63.75  log                   factor                -5.0000000000E-01     1.0000000000E-08      1.0000000000E+08      out_flows             1.0000000000E+00      0.0000000000E+00      1          
                             in_inst:0_usecol:1_direct_idx0:66.25  log                   factor                5.0000000000E-01      1.0000000000E-08      1.0000000000E+08      in_flows              1.0000000000E+00      0.0000000000E+00      1          
                            out_inst:0_usecol:2_direct_idx0:66.25  log                   factor                -5.0000000000E-01     1.0000000000E-08      1.0000000000E+08      out_flows             1.0000000000E+00      0.0000000000E+00      1          
                             in_inst:0_usecol:1_direct_idx0:68.75  log                   factor                5.0000000000E-01      1.0000000000E-08      1.0000000000E+08      in_flows              1.0000000000E+00      0.0000000000E+00      1          
                            out_inst:0_usecol:2_direct_idx0:68.75  log                   factor                -5.0000000000E-01     1.0000000000E-08      1.0000000000E+08      out_flows             1.0000000000E+00      0.0000000000E+00      1          
                             in_inst:0_usecol:1_direct_idx0:71.25  log                   factor                5.0000000000E-01      1.0000000000E-08      1.0000000000E+08      in_flows              1.0000000000E+00      0.0000000000E+00      1          
                            out_inst:0_usecol:2_direct_idx0:71.25  log                   factor                -5.0000000000E-01     1.0000000000E-08      1.0000000000E+08      out_flows             1.0000000000E+00      0.0000000000E+00      1          
                                       tot_inst:0_usecol:1_direct  log                   factor                1.0000000000E-01      0.0000000000E+00      1.0000000000E+03      tot                   1.0000000000E+00      0.0000000000E+00      1          
                      p_inst:0_usecol:1_direct_idx0:Boreholedepth  fixed                 factor                7.1250000000E+01      -1.0000000000E+01     1.0000000000E+01      model                 1.0000000000E+00      0.0000000000E+00      1          
        p_inst:0_usecol:1_direct_idx0:Spatialdiscretizationofgrid  fixed                 factor                2.5000000000E+00      -1.0000000000E+01     1.0000000000E+01      model                 1.0000000000E+00      0.0000000000E+00      1          
p_inst:0_usecol:1_direct_idx0:Constantboreholecross-sectionalarea  fixed                 factor                3.1415927000E-02      -1.0000000000E+01     1.0000000000E+01      model                 1.0000000000E+00      0.0000000000E+00      1          
                       p_inst:0_usecol:1_direct_idx0:Dispersivity  fixed                 factor                1.3000000000E+00      -1.0000000000E+01     1.0000000000E+01      model                 1.0000000000E+00      0.0000000000E+00      1          
               p_inst:0_usecol:1_direct_idx0:Diffusioncoefficient  fixed                 factor                1.0000000000E-09      -1.0000000000E+01     1.0000000000E+01      model                 1.0000000000E+00      0.0000000000E+00      1          
   p_inst:0_usecol:1_direct_idx0:Tracerconcentrationofwaterinflow  fixed                 factor                0.0000000000E+00      -1.0000000000E+01     1.0000000000E+01      model                 1.0000000000E+00      0.0000000000E+00      1          
                   p_inst:0_usecol:1_direct_idx0:Watertemperature  fixed                 factor                2.8500000000E+01      -1.0000000000E+01     1.0000000000E+01      model                 1.0000000000E+00      0.0000000000E+00      1          
                           p_inst:0_usecol:1_direct_idx0:AlphaMin  fixed                 factor                2.0000000000E-01      -1.0000000000E+01     1.0000000000E+01      model                 1.0000000000E+00      0.0000000000E+00      1          
                           p_inst:0_usecol:1_direct_idx0:AlphaMax  fixed                 factor                1.5000000000E+00      -1.0000000000E+01     1.0000000000E+01      model                 1.0000000000E+00      0.0000000000E+00      1          
                            p_inst:0_usecol:1_direct_idx0:FlowMin  fixed                 factor                0.0000000000E+00      -1.0000000000E+01     1.0000000000E+01      model                 1.0000000000E+00      0.0000000000E+00      1          
                            p_inst:0_usecol:1_direct_idx0:FlowMax  fixed                 factor                2.0000000000E+00      -1.0000000000E+01     1.0000000000E+01      model                 1.0000000000E+00      0.0000000000E+00      1          
* observation groups
flow_in              
flow_out             
prof_0.02            
prof_0.2             
prof_0.5             
prof_1.0             
prof_1.5             
prof_2.0             
prof_3.0             
prof_6.0             
* observation data
flow__usecol:1_idx0:18.75  1.0000000000E-02      1.0000000000E+00      flow_in              
flow__usecol:1_idx0:21.25  1.0000000000E-02      1.0000000000E+00      flow_in              
flow__usecol:1_idx0:23.75  1.0000000000E-02      1.0000000000E+00      flow_in              
flow__usecol:1_idx0:26.25  1.0000000000E-02      1.0000000000E+00      flow_in              
flow__usecol:1_idx0:28.75  1.0000000000E-02      1.0000000000E+00      flow_in              
flow__usecol:1_idx0:31.25  1.0000000000E-02      1.0000000000E+00      flow_in              
flow__usecol:1_idx0:33.75  1.0000000000E-02      1.0000000000E+00      flow_in              
flow__usecol:1_idx0:36.25  1.0000000000E-02      1.0000000000E+00      flow_in              
flow__usecol:1_idx0:38.75  1.0000000000E-02      1.0000000000E+00      flow_in              
flow__usecol:1_idx0:41.25  1.0000000000E-02      1.0000000000E+00      flow_in              
flow__usecol:1_idx0:43.75  1.0000000000E-02      1.0000000000E+00      flow_in              
flow__usecol:1_idx0:46.25  1.0000000000E-02      1.0000000000E+00      flow_in              
flow__usecol:1_idx0:48.75  1.0000000000E-02      1.0000000000E+00      flow_in              
flow__usecol:1_idx0:51.25  1.0000000000E-02      1.0000000000E+00      flow_in              
flow__usecol:1_idx0:53.75  1.0000000000E-02      1.0000000000E+00      flow_in              
flow__usecol:1_idx0:56.25  1.0000000000E-02      1.0000000000E+00      flow_in              
flow__usecol:1_idx0:58.75  1.0000000000E-02      1.0000000000E+00      flow_in              
flow__usecol:1_idx0:61.25  1.0000000000E-02      1.0000000000E+00      flow_in              
flow__usecol:1_idx0:63.75  1.0000000000E-02      1.0000000000E+00      flow_in              
flow__usecol:1_idx0:66.25  1.0000000000E-02      1.0000000000E+00      flow_in              
flow__usecol:1_idx0:68.75  1.0000000000E-02      1.0000000000E+00      flow_in              
flow__usecol:1_idx0:71.25  1.0000000000E-02      1.0000000000E+00      flow_in              
flow__usecol:2_idx0:18.75  -1.0000000000E-02     1.0000000000E+00      flow_out             
flow__usecol:2_idx0:21.25  -1.0000000000E-02     1.0000000000E+00      flow_out             
flow__usecol:2_idx0:23.75  -1.0000000000E-02     1.0000000000E+00      flow_out             
flow__usecol:2_idx0:26.25  -1.0000000000E-02     1.0000000000E+00      flow_out             
flow__usecol:2_idx0:28.75  -1.0000000000E-02     1.0000000000E+00      flow_out             
flow__usecol:2_idx0:31.25  -1.0000000000E-02     1.0000000000E+00      flow_out             
flow__usecol:2_idx0:33.75  -1.0000000000E-02     1.0000000000E+00      flow_out             
flow__usecol:2_idx0:36.25  -1.0000000000E-02     1.0000000000E+00      flow_out             
flow__usecol:2_idx0:38.75  -1.0000000000E-02     1.0000000000E+00      flow_out             
flow__usecol:2_idx0:41.25  -1.0000000000E-02     1.0000000000E+00      flow_out             
flow__usecol:2_idx0:43.75  -1.0000000000E-02     1.0000000000E+00      flow_out             
flow__usecol:2_idx0:46.25  -1.0000000000E-02     1.0000000000E+00      flow_out             
flow__usecol:2_idx0:48.75  -1.0000000000E-02     1.0000000000E+00      flow_out             
flow__usecol:2_idx0:51.25  -1.0000000000E-02     1.0000000000E+00      flow_out             
flow__usecol:2_idx0:53.75  -1.0000000000E-02     1.0000000000E+00      flow_out             
flow__usecol:2_idx0:56.25  -1.0000000000E-02     1.0000000000E+00      flow_out             
flow__usecol:2_idx0:58.75  -1.0000000000E-02     1.0000000000E+00      flow_out             
flow__usecol:2_idx0:61.25  -1.0000000000E-02     1.0000000000E+00      flow_out             
flow__usecol:2_idx0:63.75  -1.0000000000E-02     1.0000000000E+00      flow_out             
flow__usecol:2_idx0:66.25  -1.0000000000E-02     1.0000000000E+00      flow_out             
flow__usecol:2_idx0:68.75  -1.0000000000E-02     1.0000000000E+00      flow_out             
flow__usecol:2_idx0:71.25  -1.0000000000E-02     1.0000000000E+00      flow_out             
     usecol:1_idx0:18.75   1.0000000000E+30      1.0000000000E+00      prof_0.02            
     usecol:1_idx0:21.25   4.9145973110E+02      1.0000000000E+00      prof_0.02            
     usecol:1_idx0:23.75   4.9323684010E+02      1.0000000000E+00      prof_0.02            
     usecol:1_idx0:26.25   4.9429266640E+02      1.0000000000E+00      prof_0.02            
     usecol:1_idx0:28.75   4.9517352770E+02      1.0000000000E+00      prof_0.02            
     usecol:1_idx0:31.25   4.9596816600E+02      1.0000000000E+00      prof_0.02            
     usecol:1_idx0:33.75   4.9670020110E+02      1.0000000000E+00      prof_0.02            
     usecol:1_idx0:36.25   4.7244057230E+02      1.0000000000E+00      prof_0.02            
     usecol:1_idx0:38.75   4.9633198190E+02      1.0000000000E+00      prof_0.02            
     usecol:1_idx0:41.25   4.9772137100E+02      1.0000000000E+00      prof_0.02            
     usecol:1_idx0:43.75   4.9801802060E+02      1.0000000000E+00      prof_0.02            
     usecol:1_idx0:46.25   4.9816055550E+02      1.0000000000E+00      prof_0.02            
     usecol:1_idx0:48.75   4.9828418160E+02      1.0000000000E+00      prof_0.02            
     usecol:1_idx0:51.25   4.8436832950E+02      1.0000000000E+00      prof_0.02            
     usecol:1_idx0:53.75   4.9809858450E+02      1.0000000000E+00      prof_0.02            
     usecol:1_idx0:56.25   4.9848799600E+02      1.0000000000E+00      prof_0.02            
     usecol:1_idx0:58.75   4.9858118870E+02      1.0000000000E+00      prof_0.02            
     usecol:1_idx0:61.25   4.9867077580E+02      1.0000000000E+00      prof_0.02            
     usecol:1_idx0:63.75   4.9876805540E+02      1.0000000000E+00      prof_0.02            
     usecol:1_idx0:66.25   4.9888583990E+02      1.0000000000E+00      prof_0.02            
     usecol:1_idx0:68.75   4.9909632990E+02      1.0000000000E+00      prof_0.02            
     usecol:1_idx0:71.25   1.0000000000E+30      1.0000000000E+00      prof_0.02            
     usecol:2_idx0:18.75   1.0000000000E+30      1.0000000000E+00      prof_0.2             
     usecol:2_idx0:21.25   4.2089391940E+02      1.0000000000E+00      prof_0.2             
     usecol:2_idx0:23.75   4.3520156160E+02      1.0000000000E+00      prof_0.2             
     usecol:2_idx0:26.25   4.4451219860E+02      1.0000000000E+00      prof_0.2             
     usecol:2_idx0:28.75   4.5236770730E+02      1.0000000000E+00      prof_0.2             
     usecol:2_idx0:31.25   4.5957418040E+02      1.0000000000E+00      prof_0.2             
     usecol:2_idx0:33.75   4.6564031390E+02      1.0000000000E+00      prof_0.2             
     usecol:2_idx0:36.25   3.2092399080E+02      1.0000000000E+00      prof_0.2             
     usecol:2_idx0:38.75   4.1926259000E+02      1.0000000000E+00      prof_0.2             
     usecol:2_idx0:41.25   4.6275208780E+02      1.0000000000E+00      prof_0.2             
     usecol:2_idx0:43.75   4.7674278690E+02      1.0000000000E+00      prof_0.2             
     usecol:2_idx0:46.25   4.8085666980E+02      1.0000000000E+00      prof_0.2             
     usecol:2_idx0:48.75   4.8206958690E+02      1.0000000000E+00      prof_0.2             
     usecol:2_idx0:51.25   3.9552181330E+02      1.0000000000E+00      prof_0.2             
     usecol:2_idx0:53.75   4.6499242980E+02      1.0000000000E+00      prof_0.2             
     usecol:2_idx0:56.25   4.8241782550E+02      1.0000000000E+00      prof_0.2             
     usecol:2_idx0:58.75   4.8562812140E+02      1.0000000000E+00      prof_0.2             
     usecol:2_idx0:61.25   4.8673499670E+02      1.0000000000E+00      prof_0.2             
     usecol:2_idx0:63.75   4.8771437570E+02      1.0000000000E+00      prof_0.2             
     usecol:2_idx0:66.25   4.8888170780E+02      1.0000000000E+00      prof_0.2             
     usecol:2_idx0:68.75   4.9095032980E+02      1.0000000000E+00      prof_0.2             
     usecol:2_idx0:71.25   1.0000000000E+30      1.0000000000E+00      prof_0.2             
     usecol:3_idx0:18.75   1.0000000000E+30      1.0000000000E+00      prof_0.5             
     usecol:3_idx0:21.25   3.2513500180E+02      1.0000000000E+00      prof_0.5             
     usecol:3_idx0:23.75   3.5014176960E+02      1.0000000000E+00      prof_0.5             
     usecol:3_idx0:26.25   3.6845981540E+02      1.0000000000E+00      prof_0.5             
     usecol:3_idx0:28.75   3.8448449300E+02      1.0000000000E+00      prof_0.5             
     usecol:3_idx0:31.25   3.9958457740E+02      1.0000000000E+00      prof_0.5             
     usecol:3_idx0:33.75   4.1208601160E+02      1.0000000000E+00      prof_0.5             
     usecol:3_idx0:36.25   2.3305787140E+02      1.0000000000E+00      prof_0.5             
     usecol:3_idx0:38.75   2.9338086210E+02      1.0000000000E+00      prof_0.5             
     usecol:3_idx0:41.25   3.6017350070E+02      1.0000000000E+00      prof_0.5             
     usecol:3_idx0:43.75   4.0950431110E+02      1.0000000000E+00      prof_0.5             
     usecol:3_idx0:46.25   4.3735919800E+02      1.0000000000E+00      prof_0.5             
     usecol:3_idx0:48.75   4.4944669170E+02      1.0000000000E+00      prof_0.5             
     usecol:3_idx0:51.25   3.3803664230E+02      1.0000000000E+00      prof_0.5             
     usecol:3_idx0:53.75   3.9978464210E+02      1.0000000000E+00      prof_0.5             
     usecol:3_idx0:56.25   4.4259661010E+02      1.0000000000E+00      prof_0.5             
     usecol:3_idx0:58.75   4.6029863470E+02      1.0000000000E+00      prof_0.5             
     usecol:3_idx0:61.25   4.6633623460E+02      1.0000000000E+00      prof_0.5             
     usecol:3_idx0:63.75   4.6935825710E+02      1.0000000000E+00      prof_0.5             
     usecol:3_idx0:66.25   4.7230073990E+02      1.0000000000E+00      prof_0.5             
     usecol:3_idx0:68.75   4.7733330740E+02      1.0000000000E+00      prof_0.5             
     usecol:3_idx0:71.25   1.0000000000E+30      1.0000000000E+00      prof_0.5             
     usecol:4_idx0:18.75   1.0000000000E+30      1.0000000000E+00      prof_1.0             
     usecol:4_idx0:21.25   2.1154400340E+02      1.0000000000E+00      prof_1.0             
     usecol:4_idx0:23.75   2.3933467910E+02      1.0000000000E+00      prof_1.0             
     usecol:4_idx0:26.25   2.6267679140E+02      1.0000000000E+00      prof_1.0             
     usecol:4_idx0:28.75   2.8459844190E+02      1.0000000000E+00      prof_1.0             
     usecol:4_idx0:31.25   3.0629349420E+02      1.0000000000E+00      prof_1.0             
     usecol:4_idx0:33.75   3.2545760220E+02      1.0000000000E+00      prof_1.0             
     usecol:4_idx0:36.25   1.7641086630E+02      1.0000000000E+00      prof_1.0             
     usecol:4_idx0:38.75   1.9483418050E+02      1.0000000000E+00      prof_1.0             
     usecol:4_idx0:41.25   2.2764402220E+02      1.0000000000E+00      prof_1.0             
     usecol:4_idx0:43.75   2.7179119980E+02      1.0000000000E+00      prof_1.0             
     usecol:4_idx0:46.25   3.1837220450E+02      1.0000000000E+00      prof_1.0             
     usecol:4_idx0:48.75   3.5709097730E+02      1.0000000000E+00      prof_1.0             
     usecol:4_idx0:51.25   2.7604071540E+02      1.0000000000E+00      prof_1.0             
     usecol:4_idx0:53.75   3.1906535770E+02      1.0000000000E+00      prof_1.0             
     usecol:4_idx0:56.25   3.6628641790E+02      1.0000000000E+00      prof_1.0             
     usecol:4_idx0:58.75   4.0423572020E+02      1.0000000000E+00      prof_1.0             
     usecol:4_idx0:61.25   4.2643407310E+02      1.0000000000E+00      prof_1.0             
     usecol:4_idx0:63.75   4.3756120440E+02      1.0000000000E+00      prof_1.0             
     usecol:4_idx0:66.25   4.4472074140E+02      1.0000000000E+00      prof_1.0             
     usecol:4_idx0:68.75   4.5456771420E+02      1.0000000000E+00      prof_1.0             
     usecol:4_idx0:71.25   1.0000000000E+30      1.0000000000E+00      prof_1.0             
     usecol:5_idx0:18.75   1.0000000000E+30      1.0000000000E+00      prof_1.5             
     usecol:5_idx0:21.25   1.3769246450E+02      1.0000000000E+00      prof_1.5             
     usecol:5_idx0:23.75   1.6110360000E+02      1.0000000000E+00      prof_1.5             
     usecol:5_idx0:26.25   1.8262596230E+02      1.0000000000E+00      prof_1.5             
     usecol:5_idx0:28.75   2.0415093630E+02      1.0000000000E+00      prof_1.5             
     usecol:5_idx0:31.25   2.2652689960E+02      1.0000000000E+00      prof_1.5             
     usecol:5_idx0:33.75   2.4768023900E+02      1.0000000000E+00      prof_1.5             
     usecol:5_idx0:36.25   1.3546626770E+02      1.0000000000E+00      prof_1.5             
     usecol:5_idx0:38.75   1.4617738170E+02      1.0000000000E+00      prof_1.5             
     usecol:5_idx0:41.25   1.6172259090E+02      1.0000000000E+00      prof_1.5             
     usecol:5_idx0:43.75   1.8451003650E+02      1.0000000000E+00      prof_1.5             
     usecol:5_idx0:46.25   2.1532878610E+02      1.0000000000E+00      prof_1.5             
     usecol:5_idx0:48.75   2.5086174750E+02      1.0000000000E+00      prof_1.5             
     usecol:5_idx0:51.25   2.0204469800E+02      1.0000000000E+00      prof_1.5             
     usecol:5_idx0:53.75   2.4891242870E+02      1.0000000000E+00      prof_1.5             
     usecol:5_idx0:56.25   2.9599028530E+02      1.0000000000E+00      prof_1.5             
     usecol:5_idx0:58.75   3.4131447460E+02      1.0000000000E+00      prof_1.5             
     usecol:5_idx0:61.25   3.7772436210E+02      1.0000000000E+00      prof_1.5             
     usecol:5_idx0:63.75   4.0148294390E+02      1.0000000000E+00      prof_1.5             