pcf
* control data
             restart          estimation
       540       704         6       528        12
         3         2              single               point
   2.000000E+01  -3.000000E+00   3.000000E-01   1.000000E-02        -7
   1.000000E+01   1.000000E+01   1.000000E-03
   1.000000E-01
         0   1.000000E-02         3         3   1.000000E-02         3
         0         0         0
* singular value decomposition
         1
  10000000    1.000000E-06
1
* parameter groups
disp                   relative              1.0000000000E-02      0.0 switch                2.0000000000E+00      parabolic             1.0000000000E-05      5.0000000000E-01      smaller              
diff                   relative              1.0000000000E-02      0.0 switch                2.0000000000E+00      parabolic             1.0000000000E-05      5.0000000000E-01      smaller              
in_flows               relative              1.0000000000E-02      0.0 switch                2.0000000000E+00      parabolic             1.0000000000E-05      5.0000000000E-01      smaller              
out_flows              relative              1.0000000000E-02      0.0 switch                2.0000000000E+00      parabolic             1.0000000000E-05      5.0000000000E-01      smaller              
model                  relative              1.0000000000E-02      0.0 switch                2.0000000000E+00      parabolic             1.0000000000E-05      5.0000000000E-01      smaller              
tot                    relative              1.0000000000E-02      0.0 switch                2.0000000000E+00      parabolic             1.0000000000E-05      5.0000000000E-01      smaller              
* parameter data
                             in_inst:0_usecol:1_direct_idx0:18.75  log                   relative              2.6024103526E-01      1.0000000000E-08      1.0000000000E+08      in_flows              1.0000000000E+00      0.0000000000E+00      1          
                            out_inst:0_usecol:2_direct_idx0:18.75  log                   relative              4.6649289074E-01      1.0000000000E-08      1.0000000000E+08      out_flows             -1.0000000000E+00     0.0000000000E+00      1          
                             in_inst:0_usecol:1_direct_idx0:18.95  log                   relative              3.1295892181E-01      1.0000000000E-08      1.0000000000E+08      in_flows              1.0000000000E+00      0.0000000000E+00      1          
                            out_inst:0_usecol:2_direct_idx0:18.95  log                   relative              4.5754719518E-01      1.0000000000E-08      1.0000000000E+08      out_flows             -1.0000000000E+00     0.0000000000E+00      1          
                             in_inst:0_usecol:1_direct_idx0:19.15  log                   relative              3.6244062778E-01      1.0000000000E-08      1.0000000000E+08      in_flows              1.0000000000E+00      0.0000000000E+00      1          
                            out_inst:0_usecol:2_direct_idx0:19.15  log                   relative              4.5020168252E-01      1.0000000000E-08      1.0000000000E+08      out_flows             -1.0000000000E+00     0.0000000000E+00      1          
                             in_inst:0_usecol:1_direct_idx0:19.35  log                   relative              4.0732947607E-01      1.0000000000E-08      1.0000000000E+08      in_flows              1.0000000000E+00      0.0000000000E+00      1          
                            out_inst:0_usecol:2_direct_idx0:19.35  log                   relative              4.4453342259E-01      1.0000000000E-08      1.0000000000E+08      out_flows             -1.0000000000E+00     0.0000000000E+00      1          
                             in_inst:0_usecol:1_direct_idx0:19.55  log                   relative              4.4687855105E-01      1.0000000000E-08      1.0000000000E+08      in_flows              1.0000000000E+00      0.0000000000E+00      1          
                            out_inst:0_usecol:2_direct_idx0:19.55  log                   relative              4.4052694731E-01      1.0000000000E-08      1.0000000000E+08      out_flows             -1.0000000000E+00     0.0000000000E+00      1          
                             in_inst:0_usecol:1_direct_idx0:19.75  log                   relative              4.8089298807E-01      1.0000000000E-08      1.0000000000E+08      in_flows              1.0000000000E+00      0.0000000000E+00      1          
                            out_inst:0_usecol:2_direct_idx0:19.75  log                   relative              4.3814693425E-01      1.0000000000E-08      1.0000000000E+08      out_flows             -1.0000000000E+00     0.0000000000E+00      1          
                             in_inst:0_usecol:1_direct_idx0:19.95  log                   relative              5.0959556187E-01      1.0000000000E-08      1.0000000000E+08      in_flows              1.0000000000E+00      0.0000000000E+00      1          
                            out_inst:0_usecol:2_direct_idx0:19.95  log                   relative              4.3738130795E-01      1.0000000000E-08      1.0000000000E+08      out_flows             -1.0000000000E+00     0.0000000000E+00      1          
                             in_inst:0_usecol:1_direct_idx0:20.15  log                   relative              5.3347556554E-01      1.0000000000E-08      1.0000000000E+08      in_flows              1.0000000000E+00      0.0000000000E+00      1          
                            out_inst:0_usecol:2_direct_idx0:20.15  log                   relative              4.3826794378E-01      1.0000000000E-08      1.0000000000E+08      out_flows             -1.0000000000E+00     0.0000000000E+00      1          
                             in_inst:0_usecol:1_direct_idx0:20.35  log                   relative              5.5315729725E-01      1.0000000000E-08      1.0000000000E+08      in_flows              1.0000000000E+00      0.0000000000E+00      1          
                            out_inst:0_usecol:2_direct_idx0:20.35  log                   relative              4.4091327008E-01      1.0000000000E-08      1.0000000000E+08      out_flows             -1.0000000000E+00     0.0000000000E+00      1          
                             in_inst:0_usecol:1_direct_idx0:20.55  log                   relative              5.6930298149E-01      1.0000000000E-08      1.0000000000E+08      in_flows              1.0000000000E+00      0.0000000000E+00      1          
                            out_inst:0_usecol:2_direct_idx0:20.55  log                   relative              4.4550790447E-01      1.0000000000E-08      1.0000000000E+08      out_flows             -1.0000000000E+00     0.0000000000E+00      1          
                             in_inst:0_usecol:1_direct_idx0:20.75  log                   relative              5.8255264033E-01      1.0000000000E-08      1.0000000000E+08      in_flows              1.0000000000E+00      0.0000000000E+00      1          
                            out_inst:0_usecol:2_direct_idx0:20.75  log                   relative              4.5234381265E-01      1.0000000000E-08      1.0000000000E+08      out_flows             -1.0000000000E+00     0.0000000000E+00      1          
                             in_inst:0_usecol:1_direct_idx0:20.95  log                   relative              5.9348771236E-01      1.0000000000E-08      1.0000000000E+08      in_flows              1.0000000000E+00      0.0000000000E+00      1          
                            out_inst:0_usecol:2_direct_idx0:20.95  log                   relative              4.6185050970E-01      1.0000000000E-08      1.0000000000E+08      out_flows             -1.0000000000E+00     0.0000000000E+00      1          
                             in_inst:0_usecol:1_direct_idx0:21.15  log                   relative              6.0241257088E-01      1.0000000000E-08      1.0000000000E+08      in_flows              1.0000000000E+00      0.0000000000E+00      1          
                            out_inst:0_usecol:2_direct_idx0:21.15  log                   relative              4.7483563358E-01      1.0000000000E-08      1.0000000000E+08      out_flows             -1.0000000000E+00     0.0000000000E+00      1          
                             in_inst:0_usecol:1_direct_idx0:21.35  log                   relative              6.1982731292E-01      1.0000000000E-08      1.0000000000E+08      in_flows              1.0000000000E+00      0.0000000000E+00      1          
                            out_inst:0_usecol:2_direct_idx0:21.35  log                   relative              4.5653893069E-01      1.0000000000E-08      1.0000000000E+08      out_flows             -1.0000000000E+00     0.0000000000E+00      1          
                             in_inst:0_usecol:1_direct_idx0:21.55  log                   relative              6.3723161308E-01      1.0000000000E-08      1.0000000000E+08      in_flows              1.0000000000E+00      0.0000000000E+00      1          
                            out_inst:0_usecol:2_direct_idx0:21.55  log                   relative              4.4164981392E-01      1.0000000000E-08      1.0000000000E+08      out_flows             -1.0000000000E+00     0.0000000000E+00      1          
                             in_inst:0_usecol:1_direct_idx0:21.75  log                   relative              6.5608762342E-01      1.0000000000E-08      1.0000000000E+08      in_flows              1.0000000000E+00      0.0000000000E+00      1          
                            out_inst:0_usecol:2_direct_idx0:21.75  log                   relative              4.2893679088E-01      1.0000000000E-08      1.0000000000E+08      out_flows             -1.0000000000E+00     0.0000000000E+00      1          
                             in_inst:0_usecol:1_direct_idx0:21.95  log                   relative              6.7782099373E-01      1.0000000000E-08      1.0000000000E+08      in_flows              1.0000000000E+00      0.0000000000E+00      1          
                            out_inst:0_usecol:2_direct_idx0:21.95  log                   relative              4.1755840606E-01      1.0000000000E-08      1.0000000000E+08      out_flows             -1.0000000000E+00     0.0000000000E+00      1          
                             in_inst:0_usecol:1_direct_idx0:22.15  log                   relative              7.0413607556E-01      1.0000000000E-08      1.0000000000E+08      in_flows              1.0000000000E+00      0.0000000000E+00      1          
                            out_inst:0_usecol:2_direct_idx0:22.15  log                   relative              4.0679349370E-01      1.0000000000E-08      1.0000000000E+08      out_flows             -1.0000000000E+00     0.0000000000E+00      1          
                             in_inst:0_usecol:1_direct_idx0:22.35  log                   relative              7.3718335779E-01      1.0000000000E-08      1.0000000000E+08      in_flows              1.0000000000E+00      0.0000000000E+00      1          
                            out_inst:0_usecol:2_direct_idx0:22.35  log                   relative              3.9598586255E-01      1.0000000000E-08      1.0000000000E+08      out_flows             -1.0000000000E+00     0.0000000000E+00      1          
                             in_inst:0_usecol:1_direct_idx0:22.55  log                   relative              7.7980948343E-01      1.0000000000E-08      1.0000000000E+08      in_flows              1.0000000000E+00      0.0000000000E+00      1          
                            out_inst:0_usecol:2_direct_idx0:22.55  log                   relative              3.8451622129E-01      1.0000000000E-08      1.0000000000E+08      out_flows             -1.0000000000E+00     0.0000000000E+00      1          
                             in_inst:0_usecol:1_direct_idx0:22.75  log                   relative              8.3596869086E-01      1.0000000000E-08      1.0000000000E+08      in_flows              1.0000000000E+00      0.0000000000E+00      1          
                            out_inst:0_usecol:2_direct_idx0:22.75  log                   relative              3.7178507276E-01      1.0000000000E-08      1.0000000000E+08      out_flows             -1.0000000000E+00     0.0000000000E+00      1          
                             in_inst:0_usecol:1_direct_idx0:22.95  log                   relative              9.1145181730E-01      1.0000000000E-08      1.0000000000E+08      in_flows              1.0000000000E+00      0.0000000000E+00      1          
                            out_inst:0_usecol:2_direct_idx0:22.95  log                   relative              3.5720420391E-01      1.0000000000E-08      1.0000000000E+08      out_flows             -1.0000000000E+00     0.0000000000E+00      1          
                             in_inst:0_usecol:1_direct_idx0:23.15  log                   relative              1.0153189459E+00      1.0000000000E-08      1.0000000000E+08      in_flows              1.0000000000E+00      0.0000000000E+00      1          
                            out_inst:0_usecol:2_direct_idx0:23.15  log                   relative              3.4019337529E-01      1.0000000000E-08      1.0000000000E+08      out_flows             -1.0000000000E+00     0.0000000000E+00      1          
                             in_inst:0_usecol:1_direct_idx0:23.35  log                   relative              1.1629716968E+00      1.0000000000E-08      1.0000000000E+08      in_flows              1.0000000000E+00      0.0000000000E+00      1          
                            out_inst:0_usecol:2_direct_idx0:23.35  log                   relative              3.2017879320E-01      1.0000000000E-08      1.0000000000E+08      out_flows             -1.0000000000E+00     0.0000000000E+00      1          
                             in_inst:0_usecol:1_direct_idx0:23.55  log                   relative              1.3816012767E+00      1.0000000000E-08      1.0000000000E+08      in_flows              1.0000000000E+00      0.0000000000E+00      1          
                            out_inst:0_usecol:2_direct_idx0:23.55  log                   relative              2.9666591674E-01      1.0000000000E-08      1.0000000000E+08      out_flows             -1.0000000000E+00     0.0000000000E+00      1          
                             in_inst:0_usecol:1_direct_idx0:23.75  log                   relative              1.1768497757E+00      1.0000000000E-08      1.0000000000E+08      in_flows              1.0000000000E+00      0.0000000000E+00      1          
                            out_inst:0_usecol:2_direct_idx0:23.75  log                   relative              3.1731201244E-01      1.0000000000E-08      1.0000000000E+08      out_flows             -1.0000000000E+00     0.0000000000E+00      1          
                             in_inst:0_usecol:1_direct_idx0:23.95  log                   relative              1.0404625313E+00      1.0000000000E-08      1.0000000000E+08      in_flows              1.0000000000E+00      0.0000000000E+00      1          
                            out_inst:0_usecol:2_direct_idx0:23.95  log                   relative              3.3391224315E-01      1.0000000000E-08      1.0000000000E+08      out_flows             -1.0000000000E+00     0.0000000000E+00      1          
                             in_inst:0_usecol:1_direct_idx0:24.15  log                   relative              9.4735819993E-01      1.0000000000E-08      1.0000000000E+08      in_flows              1.0000000000E+00      0.0000000000E+00      1          
                            out_inst:0_usecol:2_direct_idx0:24.15  log                   relative              3.4678046506E-01      1.0000000000E-08      1.0000000000E+08      out_flows             -1.0000000000E+00     0.0000000000E+00      1          
                             in_inst:0_usecol:1_direct_idx0:24.35  log                   relative              8.8353399776E-01      1.0000000000E-08      1.0000000000E+08      in_flows              1.0000000000E+00      0.0000000000E+00      1          
                            out_inst:0_usecol:2_direct_idx0:24.35  log                   relative              3.5624205452E-01      1.0000000000E-08      1.0000000000E+08      out_flows             -1.0000000000E+00     0.0000000000E+00      1          
                             in_inst:0_usecol:1_direct_idx0:24.55  log                   relative              8.4109969708E-01      1.0000000000E-08      1.0000000000E+08      in_flows              1.0000000000E+00      0.0000000000E+00      1          
                            out_inst:0_usecol:2_direct_idx0:24.55  log                   relative              3.6255677971E-01      1.0000000000E-08      1.0000000000E+08      out_flows             -1.0000000000E+00     0.0000000000E+00      1          
                             in_inst:0_usecol:1_direct_idx0:24.75  log                   relative              8.1545322876E-01      1.0000000000E-08      1.0000000000E+08      in_flows              1.0000000000E+00      0.0000000000E+00      1          
                            out_inst:0_usecol:2_direct_idx0:24.75  log                   relative              3.6591043992E-01      1.0000000000E-08      1.0000000000E+08      out_flows             -1.0000000000E+00     0.0000000000E+00      1          
                             in_inst:0_usecol:1_direct_idx0:24.95  log                   relative              8.0402227375E-01      1.0000000000E-08      1.0000000000E+08      in_flows              1.0000000000E+00      0.0000000000E+00      1          
                            out_inst:0_usecol:2_direct_idx0:24.95  log                   relative              3.6640413477E-01      1.0000000000E-08      1.0000000000E+08      out_flows             -1.0000000000E+00     0.0000000000E+00      1          
                             in_inst:0_usecol:1_direct_idx0:25.15  log                   relative              8.0570954699E-01      1.0000000000E-08      1.0000000000E+08      in_flows              1.0000000000E+00      0.0000000000E+00      1          
                            out_inst:0_usecol:2_direct_idx0:25.15  log                   relative              3.6404562175E-01      1.0000000000E-08      1.0000000000E+08      out_flows             -1.0000000000E+00     0.0000000000E+00      1          
                             in_inst:0_usecol:1_direct_idx0:25.35  log                   relative              8.2071465682E-01      1.0000000000E-08      1.0000000000E+08      in_flows              1.0000000000E+00      0.0000000000E+00      1          
                            out_inst:0_usecol:2_direct_idx0:25.35  log                   relative              3.5874639982E-01      1.0000000000E-08      1.0000000000E+08      out_flows             -1.0000000000E+00     0.0000000000E+00      1          
                             in_inst:0_usecol:1_direct_idx0:25.55  log                   relative              8.5067500376E-01      1.0000000000E-08      1.0000000000E+08      in_flows              1.0000000000E+00      0.0000000000E+00      1          
                            out_inst:0_usecol:2_direct_idx0:25.55  log                   relative              3.5032449407E-01      1.0000000000E-08      1.0000000000E+08      out_flows             -1.0000000000E+00     0.0000000000E+00      1          
                             in_inst:0_usecol:1_direct_idx0:25.75  log                   relative              8.9929420434E-01      1.0000000000E-08      1.0000000000E+08      in_flows              1.0000000000E+00      0.0000000000E+00      1          
                            out_inst:0_usecol:2_direct_idx0:25.75  log                   relative              3.3850955809E-01      1.0000000000E-08      1.0000000000E+08      out_flows             -1.0000000000E+00     0.0000000000E+00      1          
                             in_inst:0_usecol:1_direct_idx0:25.95  log                   relative              9.7400916528E-01      1.0000000000E-08      1.0000000000E+08      in_flows              1.0000000000E+00      0.0000000000E+00      1          
                            out_inst:0_usecol:2_direct_idx0:25.95  log                   relative              3.2294713869E-01      1.0000000000E-08      1.0000000000E+08      out_flows             -1.0000000000E+00     0.0000000000E+00      1          
                             in_inst:0_usecol:1_direct_idx0:26.15  log                   relative              1.0892380894E+00      1.0000000000E-08      1.0000000000E+08      in_flows              1.0000000000E+00      0.0000000000E+00      1          
                            out_inst:0_usecol:2_direct_idx0:26.15  log                   relative              3.0327812306E-01      1.0000000000E-08      1.0000000000E+08      out_flows             -1.0000000000E+00     0.0000000000E+00      1          
                             in_inst:0_usecol:1_direct_idx0:26.35  log                   relative              9.6670977722E-01      1.0000000000E-08      1.0000000000E+08      in_flows              1.0000000000E+00      0.0000000000E+00      1          
                            out_inst:0_usecol:2_direct_idx0:26.35  log                   relative              3.2310081771E-01      1.0000000000E-08      1.0000000000E+08      out_flows             -1.0000000000E+00     0.0000000000E+00      1          
                             in_inst:0_usecol:1_direct_idx0:26.55  log                   relative              8.8546143444E-01      1.0000000000E-08      1.0000000000E+08      in_flows              1.0000000000E+00      0.0000000000E+00      1          
                            out_inst:0_usecol:2_direct_idx0:26.55  log                   relative              3.3883977473E-01      1.0000000000E-08      1.0000000000E+08      out_flows             -1.0000000000E+00     0.0000000000E+00      1          
                             in_inst:0_usecol:1_direct_idx0:26.75  log                   relative              8.3014679866E-01      1.0000000000E-08      1.0000000000E+08      in_flows              1.0000000000E+00      0.0000000000E+00      1          
                            out_inst:0_usecol:2_direct_idx0:26.75  log                   relative              3.5085788871E-01      1.0000000000E-08      1.0000000000E+08      out_flows             -1.0000000000E+00     0.0000000000E+00      1          
                             in_inst:0_usecol:1_direct_idx0:26.95  log                   relative              7.9261667213E-01      1.0000000000E-08      1.0000000000E+08      in_flows              1.0000000000E+00      0.0000000000E+00      1          
                            out_inst:0_usecol:2_direct_idx0:26.95  log                   relative              3.5951426305E-01      1.0000000000E-08      1.0000000000E+08      out_flows             -1.0000000000E+00     0.0000000000E+00      1          
                             in_inst:0_usecol:1_direct_idx0:27.15  log                   relative              7.6847240525E-01      1.0000000000E-08      1.0000000000E+08      in_flows              1.0000000000E+00      0.0000000000E+00      1          
                            out_inst:0_usecol:2_direct_idx0:27.15  log                   relative              3.6508347727E-01      1.0000000000E-08      1.0000000000E+08      out_flows             -1.0000000000E+00     0.0000000000E+00      1          
                             in_inst:0_usecol:1_direct_idx0:27.35  log                   relative              7.5528019750E-01      1.0000000000E-08      1.0000000000E+08      in_flows              1.0000000000E+00      0.0000000000E+00      1          
                            out_inst:0_usecol:2_direct_idx0:27.35  log                   relative              3.6774955983E-01      1.0000000000E-08      1.0000000000E+08      out_flows             -1.0000000000E+00     0.0000000000E+00      1          
                             in_inst:0_usecol:1_direct_idx0:27.55  log                   relative              7.5183748731E-01      1.0000000000E-08      1.0000000000E+08      in_flows              1.0000000000E+00      0.0000000000E+00      1          
                            out_inst:0_usecol:2_direct_idx0:27.55  log                   relative              3.6759811565E-01      1.0000000000E-08      1.0000000000E+08      out_flows             -1.0000000000E+00     0.0000000000E+00      1          
                             in_inst:0_usecol:1_direct_idx0:27.75  log                   relative              7.5791278741E-01      1.0000000000E-08      1.0000000000E+08      in_flows              1.0000000000E+00      0.0000000000E+00      1          
                            out_inst:0_usecol:2_direct_idx0:27.75  log                   relative              3.6460880999E-01      1.0000000000E-08      1.0000000000E+08      out_flows             -1.0000000000E+00     0.0000000000E+00      1          
                             in_inst:0_usecol:1_direct_idx0:27.95  log                   relative              7.7428133054E-01      1.0000000000E-08      1.0000000000E+08      in_flows              1.0000000000E+00      0.0000000000E+00      1          
                            out_inst:0_usecol:2_direct_idx0:27.95  log                   relative              3.5864973424E-01      1.0000000000E-08      1.0000000000E+08      out_flows             -1.0000000000E+00     0.0000000000E+00      1          
                             in_inst:0_usecol:1_direct_idx0:28.15  log                   relative              8.0313078788E-01      1.0000000000E-08      1.0000000000E+08      in_flows              1.0000000000E+00      0.0000000000E+00      1          
                            out_inst:0_usecol:2_direct_idx0:28.15  log                   relative              3.4947029399E-01      1.0000000000E-08      1.0000000000E+08      out_flows             -1.0000000000E+00     0.0000000000E+00      1          
                             in_inst:0_usecol:1_direct_idx0:28.35  log                   relative              8.4921667170E-01      1.0000000000E-08      1.0000000000E+08      in_flows              1.0000000000E+00      0.0000000000E+00      1          
                            out_inst:0_usecol:2_direct_idx0:28.35  log                   relative              3.3668891521E-01      1.0000000000E-08      1.0000000000E+08      out_flows             -1.0000000000E+00     0.0000000000E+00      1          
                             in_inst:0_usecol:1_direct_idx0:28.55  log                   relative              9.2220993181E-01      1.0000000000E-08      1.0000000000E+08      in_flows              1.0000000000E+00      0.0000000000E+00      1          
                            out_inst:0_usecol:2_direct_idx0:28.55  log                   relative              3.1985478649E-01      1.0000000000E-08      1.0000000000E+08      out_flows             -1.0000000000E+00     0.0000000000E+00      1          
                             in_inst:0_usecol:1_direct_idx0:28.75  log                   relative              8.4009903666E-01      1.0000000000E-08      1.0000000000E+08      in_flows              1.0000000000E+00      0.0000000000E+00      1          
                            out_inst:0_usecol:2_direct_idx0:28.75  log                   relative              3.3799447578E-01      1.0000000000E-08      1.0000000000E+08      out_flows             -1.0000000000E+00     0.0000000000E+00      1          
                             in_inst:0_usecol:1_direct_idx0:28.95  log                   relative              7.8546461785E-01      1.0000000000E-08      1.0000000000E+08      in_flows              1.0000000000E+00      0.0000000000E+00      1          
                            out_inst:0_usecol:2_direct_idx0:28.95  log                   relative              3.5227801532E-01      1.0000000000E-08      1.0000000000E+08      out_flows             -1.0000000000E+00     0.0000000000E+00      1          
                             in_inst:0_usecol:1_direct_idx0:29.15  log                   relative              7.4761876112E-01      1.0000000000E-08      1.0000000000E+08      in_flows              1.0000000000E+00      0.0000000000E+00      1          
                            out_inst:0_usecol:2_direct_idx0:29.15  log                   relative              3.6322351686E-01      1.0000000000E-08      1.0000000000E+08      out_flows             -1.0000000000E+00     0.0000000000E+00      1          
                             in_inst:0_usecol:1_direct_idx0:29.35  log                   relative              7.2097853157E-01      1.0000000000E-08      1.0000000000E+08      in_flows              1.0000000000E+00      0.0000000000E+00      1          
                            out_inst:0_usecol:2_direct_idx0:29.35  log                   relative              3.7129974441E-01      1.0000000000E-08      1.0000000000E+08      out_flows             -1.0000000000E+00     0.0000000000E+00      1          
                             in_inst:0_usecol:1_direct_idx0:29.55  log                   relative              7.0251813874E-01      1.0000000000E-08      1.0000000000E+08      in_flows              1.0000000000E+00      0.0000000000E+00      1          
                            out_inst:0_usecol:2_direct_idx0:29.55  log                   relative              3.7686113543E-01      1.0000000000E-08      1.0000000000E+08      out_flows             -1.0000000000E+00     0.0000000000E+00      1          