pcf
* control data
             restart          estimation
       122       470         6         0         8
         3         2              single               point
   2.000000E+01  -3.000000E+00   3.000000E-01   1.000000E-02        -7
   1.000000E+01   1.000000E+01   1.000000E-03
   1.000000E-01
         0   1.000000E-02         3         3   1.000000E-02         3
         0         0         0
* singular value decomposition
         1
  10000000    1.000000E-06
1
* parameter groups
disp                   relative              1.0000000000E-02          0.0 switch                2.0000000000E+00      parabolic             1.0000000000E-05      5.0000000000E-01      smaller              
diff                   relative              1.0000000000E-02          0.0 switch                2.0000000000E+00      parabolic             1.0000000000E-05      5.0000000000E-01      smaller              
in_flows               relative              1.0000000000E-02      10000.0 switch                2.0000000000E+00      parabolic             1.0000000000E-05      5.0000000000E-01      smaller              
out_flows              relative              1.0000000000E-02      10000.0 switch                2.0000000000E+00      parabolic             1.0000000000E-05      5.0000000000E-01      smaller              
model                  relative              1.0000000000E-02          0.0 switch                2.0000000000E+00      parabolic             1.0000000000E-05      5.0000000000E-01      smaller              
tot                    relative              1.0000000000E-02          0.0 switch                2.0000000000E+00      parabolic             1.0000000000E-05      5.0000000000E-01      smaller              
* parameter data
                                            in_inst:0_usecol:1_direct_idx0:30  log                   relative              1.9002788796E+01      1.0000000000E-08      1.0000000000E+08      in_flows              1.0000000000E+00      0.0000000000E+00      1          
                                           out_inst:0_usecol:2_direct_idx0:30  log                   relative              1.2293133624E-01      1.0000000000E-08      1.0000000000E+08      out_flows             -1.0000000000E+00     0.0000000000E+00      1          
                                            in_inst:0_usecol:1_direct_idx0:31  log                   relative              1.1744334165E+00      1.0000000000E-08      1.0000000000E+08      in_flows              1.0000000000E+00      0.0000000000E+00      1          
                                           out_inst:0_usecol:2_direct_idx0:31  log                   relative              8.2762764562E-02      1.0000000000E-08      1.0000000000E+08      out_flows             -1.0000000000E+00     0.0000000000E+00      1          
                                            in_inst:0_usecol:1_direct_idx0:32  log                   relative              1.6380445511E+00      1.0000000000E-08      1.0000000000E+08      in_flows              1.0000000000E+00      0.0000000000E+00      1          
                                           out_inst:0_usecol:2_direct_idx0:32  log                   relative              7.3373454036E-02      1.0000000000E-08      1.0000000000E+08      out_flows             -1.0000000000E+00     0.0000000000E+00      1          
                                            in_inst:0_usecol:1_direct_idx0:33  log                   relative              1.0879943896E+00      1.0000000000E-08      1.0000000000E+08      in_flows              1.0000000000E+00      0.0000000000E+00      1          
                                           out_inst:0_usecol:2_direct_idx0:33  log                   relative              1.0544125835E-01      1.0000000000E-08      1.0000000000E+08      out_flows             -1.0000000000E+00     0.0000000000E+00      1          
                                            in_inst:0_usecol:1_direct_idx0:34  log                   relative              8.1171100159E-01      1.0000000000E-08      1.0000000000E+08      in_flows              1.0000000000E+00      0.0000000000E+00      1          
                                           out_inst:0_usecol:2_direct_idx0:34  log                   relative              1.3349669236E-01      1.0000000000E-08      1.0000000000E+08      out_flows             -1.0000000000E+00     0.0000000000E+00      1          
                                            in_inst:0_usecol:1_direct_idx0:35  log                   relative              6.8338670213E-01      1.0000000000E-08      1.0000000000E+08      in_flows              1.0000000000E+00      0.0000000000E+00      1          
                                           out_inst:0_usecol:2_direct_idx0:35  log                   relative              1.5626180234E-01      1.0000000000E-08      1.0000000000E+08      out_flows             -1.0000000000E+00     0.0000000000E+00      1          
                                            in_inst:0_usecol:1_direct_idx0:36  log                   relative              5.5616463232E-01      1.0000000000E-08      1.0000000000E+08      in_flows              1.0000000000E+00      0.0000000000E+00      1          
                                           out_inst:0_usecol:2_direct_idx0:36  log                   relative              1.8861473453E-01      1.0000000000E-08      1.0000000000E+08      out_flows             -1.0000000000E+00     0.0000000000E+00      1          
                                            in_inst:0_usecol:1_direct_idx0:37  log                   relative              3.9563426883E-01      1.0000000000E-08      1.0000000000E+08      in_flows              1.0000000000E+00      0.0000000000E+00      1          
                                           out_inst:0_usecol:2_direct_idx0:37  log                   relative              2.3284136087E-01      1.0000000000E-08      1.0000000000E+08      out_flows             -1.0000000000E+00     0.0000000000E+00      1          
                                            in_inst:0_usecol:1_direct_idx0:38  log                   relative              3.5772847357E-01      1.0000000000E-08      1.0000000000E+08      in_flows              1.0000000000E+00      0.0000000000E+00      1          
                                           out_inst:0_usecol:2_direct_idx0:38  log                   relative              2.7365571656E-01      1.0000000000E-08      1.0000000000E+08      out_flows             -1.0000000000E+00     0.0000000000E+00      1          
                                            in_inst:0_usecol:1_direct_idx0:39  log                   relative              3.4230101593E-01      1.0000000000E-08      1.0000000000E+08      in_flows              1.0000000000E+00      0.0000000000E+00      1          
                                           out_inst:0_usecol:2_direct_idx0:39  log                   relative              3.0968916947E-01      1.0000000000E-08      1.0000000000E+08      out_flows             -1.0000000000E+00     0.0000000000E+00      1          
                                            in_inst:0_usecol:1_direct_idx0:40  log                   relative              3.5589630888E-01      1.0000000000E-08      1.0000000000E+08      in_flows              1.0000000000E+00      0.0000000000E+00      1          
                                           out_inst:0_usecol:2_direct_idx0:40  log                   relative              3.2973753688E-01      1.0000000000E-08      1.0000000000E+08      out_flows             -1.0000000000E+00     0.0000000000E+00      1          
                                            in_inst:0_usecol:1_direct_idx0:41  log                   relative              3.8122159344E-01      1.0000000000E-08      1.0000000000E+08      in_flows              1.0000000000E+00      0.0000000000E+00      1          
                                           out_inst:0_usecol:2_direct_idx0:41  log                   relative              3.3971418929E-01      1.0000000000E-08      1.0000000000E+08      out_flows             -1.0000000000E+00     0.0000000000E+00      1          
                                            in_inst:0_usecol:1_direct_idx0:42  log                   relative              4.0056520047E-01      1.0000000000E-08      1.0000000000E+08      in_flows              1.0000000000E+00      0.0000000000E+00      1          
                                           out_inst:0_usecol:2_direct_idx0:42  log                   relative              3.4656245797E-01      1.0000000000E-08      1.0000000000E+08      out_flows             -1.0000000000E+00     0.0000000000E+00      1          
                                            in_inst:0_usecol:1_direct_idx0:43  log                   relative              4.0524560201E-01      1.0000000000E-08      1.0000000000E+08      in_flows              1.0000000000E+00      0.0000000000E+00      1          
                                           out_inst:0_usecol:2_direct_idx0:43  log                   relative              3.5391881759E-01      1.0000000000E-08      1.0000000000E+08      out_flows             -1.0000000000E+00     0.0000000000E+00      1          
                                            in_inst:0_usecol:1_direct_idx0:44  log                   relative              3.9173564477E-01      1.0000000000E-08      1.0000000000E+08      in_flows              1.0000000000E+00      0.0000000000E+00      1          
                                           out_inst:0_usecol:2_direct_idx0:44  log                   relative              3.6182014003E-01      1.0000000000E-08      1.0000000000E+08      out_flows             -1.0000000000E+00     0.0000000000E+00      1          
                                            in_inst:0_usecol:1_direct_idx0:45  log                   relative              4.1042999666E-01      1.0000000000E-08      1.0000000000E+08      in_flows              1.0000000000E+00      0.0000000000E+00      1          
                                           out_inst:0_usecol:2_direct_idx0:45  log                   relative              3.7050519075E-01      1.0000000000E-08      1.0000000000E+08      out_flows             -1.0000000000E+00     0.0000000000E+00      1          
                                            in_inst:0_usecol:1_direct_idx0:46  log                   relative              4.4044376229E-01      1.0000000000E-08      1.0000000000E+08      in_flows              1.0000000000E+00      0.0000000000E+00      1          
                                           out_inst:0_usecol:2_direct_idx0:46  log                   relative              3.8077727109E-01      1.0000000000E-08      1.0000000000E+08      out_flows             -1.0000000000E+00     0.0000000000E+00      1          
                                            in_inst:0_usecol:1_direct_idx0:47  log                   relative              4.5978231643E-01      1.0000000000E-08      1.0000000000E+08      in_flows              1.0000000000E+00      0.0000000000E+00      1          
                                           out_inst:0_usecol:2_direct_idx0:47  log                   relative              3.9258678612E-01      1.0000000000E-08      1.0000000000E+08      out_flows             -1.0000000000E+00     0.0000000000E+00      1          
                                            in_inst:0_usecol:1_direct_idx0:48  log                   relative              4.5564933419E-01      1.0000000000E-08      1.0000000000E+08      in_flows              1.0000000000E+00      0.0000000000E+00      1          
                                           out_inst:0_usecol:2_direct_idx0:48  log                   relative              4.0556198194E-01      1.0000000000E-08      1.0000000000E+08      out_flows             -1.0000000000E+00     0.0000000000E+00      1          
                                            in_inst:0_usecol:1_direct_idx0:49  log                   relative              4.4055286597E-01      1.0000000000E-08      1.0000000000E+08      in_flows              1.0000000000E+00      0.0000000000E+00      1          
                                           out_inst:0_usecol:2_direct_idx0:49  log                   relative              4.1861192582E-01      1.0000000000E-08      1.0000000000E+08      out_flows             -1.0000000000E+00     0.0000000000E+00      1          
                                            in_inst:0_usecol:1_direct_idx0:50  log                   relative              4.2907739326E-01      1.0000000000E-08      1.0000000000E+08      in_flows              1.0000000000E+00      0.0000000000E+00      1          
                                           out_inst:0_usecol:2_direct_idx0:50  log                   relative              4.3177520258E-01      1.0000000000E-08      1.0000000000E+08      out_flows             -1.0000000000E+00     0.0000000000E+00      1          
                                            in_inst:0_usecol:1_direct_idx0:51  log                   relative              4.1635994202E-01      1.0000000000E-08      1.0000000000E+08      in_flows              1.0000000000E+00      0.0000000000E+00      1          
                                           out_inst:0_usecol:2_direct_idx0:51  log                   relative              4.4595220204E-01      1.0000000000E-08      1.0000000000E+08      out_flows             -1.0000000000E+00     0.0000000000E+00      1          
                                            in_inst:0_usecol:1_direct_idx0:52  log                   relative              4.0214104166E-01      1.0000000000E-08      1.0000000000E+08      in_flows              1.0000000000E+00      0.0000000000E+00      1          
                                           out_inst:0_usecol:2_direct_idx0:52  log                   relative              4.6072425580E-01      1.0000000000E-08      1.0000000000E+08      out_flows             -1.0000000000E+00     0.0000000000E+00      1          
                                            in_inst:0_usecol:1_direct_idx0:53  log                   relative              4.0276639671E-01      1.0000000000E-08      1.0000000000E+08      in_flows              1.0000000000E+00      0.0000000000E+00      1          
                                           out_inst:0_usecol:2_direct_idx0:53  log                   relative              4.7498662986E-01      1.0000000000E-08      1.0000000000E+08      out_flows             -1.0000000000E+00     0.0000000000E+00      1          
                                            in_inst:0_usecol:1_direct_idx0:54  log                   relative              4.1290813197E-01      1.0000000000E-08      1.0000000000E+08      in_flows              1.0000000000E+00      0.0000000000E+00      1          
                                           out_inst:0_usecol:2_direct_idx0:54  log                   relative              4.9056052799E-01      1.0000000000E-08      1.0000000000E+08      out_flows             -1.0000000000E+00     0.0000000000E+00      1          
                                            in_inst:0_usecol:1_direct_idx0:55  log                   relative              4.2736370141E-01      1.0000000000E-08      1.0000000000E+08      in_flows              1.0000000000E+00      0.0000000000E+00      1          
                                           out_inst:0_usecol:2_direct_idx0:55  log                   relative              5.0740789220E-01      1.0000000000E-08      1.0000000000E+08      out_flows             -1.0000000000E+00     0.0000000000E+00      1          
                                            in_inst:0_usecol:1_direct_idx0:56  log                   relative              4.3458932181E-01      1.0000000000E-08      1.0000000000E+08      in_flows              1.0000000000E+00      0.0000000000E+00      1          
                                           out_inst:0_usecol:2_direct_idx0:56  log                   relative              5.2569819391E-01      1.0000000000E-08      1.0000000000E+08      out_flows             -1.0000000000E+00     0.0000000000E+00      1          
                                            in_inst:0_usecol:1_direct_idx0:57  log                   relative              4.3524208870E-01      1.0000000000E-08      1.0000000000E+08      in_flows              1.0000000000E+00      0.0000000000E+00      1          
                                           out_inst:0_usecol:2_direct_idx0:57  log                   relative              5.4493550612E-01      1.0000000000E-08      1.0000000000E+08      out_flows             -1.0000000000E+00     0.0000000000E+00      1          
                                            in_inst:0_usecol:1_direct_idx0:58  log                   relative              4.3449380220E-01      1.0000000000E-08      1.0000000000E+08      in_flows              1.0000000000E+00      0.0000000000E+00      1          
                                           out_inst:0_usecol:2_direct_idx0:58  log                   relative              5.6416603353E-01      1.0000000000E-08      1.0000000000E+08      out_flows             -1.0000000000E+00     0.0000000000E+00      1          
                                            in_inst:0_usecol:1_direct_idx0:59  log                   relative              4.3538279567E-01      1.0000000000E-08      1.0000000000E+08      in_flows              1.0000000000E+00      0.0000000000E+00      1          
                                           out_inst:0_usecol:2_direct_idx0:59  log                   relative              5.8351572475E-01      1.0000000000E-08      1.0000000000E+08      out_flows             -1.0000000000E+00     0.0000000000E+00      1          
                                            in_inst:0_usecol:1_direct_idx0:60  log                   relative              4.2964522899E-01      1.0000000000E-08      1.0000000000E+08      in_flows              1.0000000000E+00      0.0000000000E+00      1          
                                           out_inst:0_usecol:2_direct_idx0:60  log                   relative              6.0314261922E-01      1.0000000000E-08      1.0000000000E+08      out_flows             -1.0000000000E+00     0.0000000000E+00      1          
                                            in_inst:0_usecol:1_direct_idx0:61  log                   relative              4.1843209187E-01      1.0000000000E-08      1.0000000000E+08      in_flows              1.0000000000E+00      0.0000000000E+00      1          
                                           out_inst:0_usecol:2_direct_idx0:61  log                   relative              6.2489534428E-01      1.0000000000E-08      1.0000000000E+08      out_flows             -1.0000000000E+00     0.0000000000E+00      1          
                                            in_inst:0_usecol:1_direct_idx0:62  log                   relative              4.2333354155E-01      1.0000000000E-08      1.0000000000E+08      in_flows              1.0000000000E+00      0.0000000000E+00      1          
                                           out_inst:0_usecol:2_direct_idx0:62  log                   relative              6.4697796663E-01      1.0000000000E-08      1.0000000000E+08      out_flows             -1.0000000000E+00     0.0000000000E+00      1          
                                            in_inst:0_usecol:1_direct_idx0:63  log                   relative              4.5625003927E-01      1.0000000000E-08      1.0000000000E+08      in_flows              1.0000000000E+00      0.0000000000E+00      1          
                                           out_inst:0_usecol:2_direct_idx0:63  log                   relative              6.6587738342E-01      1.0000000000E-08      1.0000000000E+08      out_flows             -1.0000000000E+00     0.0000000000E+00      1          
                                            in_inst:0_usecol:1_direct_idx0:64  log                   relative              4.8838142634E-01      1.0000000000E-08      1.0000000000E+08      in_flows              1.0000000000E+00      0.0000000000E+00      1          
                                           out_inst:0_usecol:2_direct_idx0:64  log                   relative              6.8377115738E-01      1.0000000000E-08      1.0000000000E+08      out_flows             -1.0000000000E+00     0.0000000000E+00      1          
                                            in_inst:0_usecol:1_direct_idx0:65  log                   relative              5.1976721974E-01      1.0000000000E-08      1.0000000000E+08      in_flows              1.0000000000E+00      0.0000000000E+00      1          
                                           out_inst:0_usecol:2_direct_idx0:65  log                   relative              7.0195382975E-01      1.0000000000E-08      1.0000000000E+08      out_flows             -1.0000000000E+00     0.0000000000E+00      1          
                                            in_inst:0_usecol:1_direct_idx0:66  log                   relative              5.5600690490E-01      1.0000000000E-08      1.0000000000E+08      in_flows              1.0000000000E+00      0.0000000000E+00      1          
                                           out_inst:0_usecol:2_direct_idx0:66  log                   relative              7.1501630238E-01      1.0000000000E-08      1.0000000000E+08      out_flows             -1.0000000000E+00     0.0000000000E+00      1          
                                            in_inst:0_usecol:1_direct_idx0:67  log                   relative              5.6006575133E-01      1.0000000000E-08      1.0000000000E+08      in_flows              1.0000000000E+00      0.0000000000E+00      1          
                                           out_inst:0_usecol:2_direct_idx0:67  log                   relative              7.2861297803E-01      1.0000000000E-08      1.0000000000E+08      out_flows             -1.0000000000E+00     0.0000000000E+00      1          
                                            in_inst:0_usecol:1_direct_idx0:68  log                   relative              5.4550318410E-01      1.0000000000E-08      1.0000000000E+08      in_flows              1.0000000000E+00      0.0000000000E+00      1          
                                           out_inst:0_usecol:2_direct_idx0:68  log                   relative              7.4766431991E-01      1.0000000000E-08      1.0000000000E+08      out_flows             -1.0000000000E+00     0.0000000000E+00      1          
                                            in_inst:0_usecol:1_direct_idx0:69  log                   relative              5.4848961798E-01      1.0000000000E-08      1.0000000000E+08      in_flows              1.0000000000E+00      0.0000000000E+00      1          
                                           out_inst:0_usecol:2_direct_idx0:69  log                   relative              7.6590198152E-01      1.0000000000E-08      1.0000000000E+08      out_flows             -1.0000000000E+00     0.0000000000E+00      1          
                                            in_inst:0_usecol:1_direct_idx0:70  log                   relative              5.6321917669E-01      1.0000000000E-08      1.0000000000E+08      in_flows              1.0000000000E+00      0.0000000000E+00      1          
                                           out_inst:0_usecol:2_direct_idx0:70  log                   relative              7.7686974996E-01      1.0000000000E-08      1.0000000000E+08      out_flows             -1.0000000000E+00     0.0000000000E+00      1          
                                            in_inst:0_usecol:1_direct_idx0:71  log                   relative              5.3442436155E-01      1.0000000000E-08      1.0000000000E+08      in_flows              1.0000000000E+00      0.0000000000E+00      1          
                                           out_inst:0_usecol:2_direct_idx0:71  log                   relative              7.9054822707E-01      1.0000000000E-08      1.0000000000E+08      out_flows             -1.0000000000E+00     0.0000000000E+00      1          
                                            in_inst:0_usecol:1_direct_idx0:72  log                   relative              5.0268701393E-01      1.0000000000E-08      1.0000000000E+08      in_flows              1.0000000000E+00      0.0000000000E+00      1          
                                           out_inst:0_usecol:2_direct_idx0:72  log                   relative              8.1145070300E-01      1.0000000000E-08      1.0000000000E+08      out_flows             -1.0000000000E+00     0.0000000000E+00      1          
                                            in_inst:0_usecol:1_direct_idx0:73  log                   relative              4.9120827315E-01      1.0000000000E-08      1.0000000000E+08      in_flows              1.0000000000E+00      0.0000000000E+00      1          
                                           out_inst:0_usecol:2_direct_idx0:73  log                   relative              8.2821818137E-01      1.0000000000E-08      1.0000000000E+08      out_flows             -1.0000000000E+00     0.0000000000E+00      1          
                                            in_inst:0_usecol:1_direct_idx0:74  log                   relative              4.7492737927E-01      1.0000000000E-08      1.0000000000E+08      in_flows              1.0000000000E+00      0.0000000000E+00      1          
                                           out_inst:0_usecol:2_direct_idx0:74  log                   relative              8.4634749280E-01      1.0000000000E-08      1.0000000000E+08      out_flows             -1.0000000000E+00     0.0000000000E+00      1          
                                            in_inst:0_usecol:1_direct_idx0:75  log                   relative              4.5941253315E-01      1.0000000000E-08      1.0000000000E+08      in_flows              1.0000000000E+00      0.0000000000E+00      1          
                                           out_inst:0_usecol:2_direct_idx0:75  log                   relative              8.6796025524E-01      1.0000000000E-08      1.0000000000E+08      out_flows             -1.0000000000E+00     0.0000000000E+00      1          
                                            in_inst:0_usecol:1_direct_idx0:76  log                   relative              4.5926581970E-01      1.0000000000E-08      1.0000000000E+08      in_flows              1.0000000000E+00      0.0000000000E+00      1          
                                           out_inst:0_usecol:2_direct_idx0:76  log                   relative              8.8539458953E-01      1.0000000000E-08      1.0000000000E+08      out_flows             -1.0000000000E+00     0.0000000000E+00      1          
                                            in_inst:0_usecol:1_direct_idx0:77  log                   relative              4.8400439267E-01      1.0000000000E-08      1.0000000000E+08      in_flows              1.0000000000E+00      0.0000000000E+00      1          
                                           out_inst:0_usecol:2_direct_idx0:77  log                   relative              8.7268113735E-01      1.0000000000E-08      1.0000000000E+08      out_flows             -1.0000000000E+00     0.0000000000E+00      1          
                                            in_inst:0_usecol:1_direct_idx0:78  log                   relative              4.6903672553E-01      1.0000000000E-08      1.0000000000E+08      in_flows              1.0000000000E+00      0.0000000000E+00      1          
                                           out_inst:0_usecol:2_direct_idx0:78  log                   relative              8.5069218808E-01      1.0000000000E-08      1.0000000000E+08      out_flows             -1.0000000000E+00     0.0000000000E+00      1          
                                            in_inst:0_usecol:1_direct_idx0:79  log                   relative              5.1666311828E-01      1.0000000000E-08      1.0000000000E+08      in_flows              1.0000000000E+00      0.0000000000E+00      1          
                                           out_inst:0_usecol:2_direct_idx0:79  log                   relative              7.7495312991E-01      1.0000000000E-08      1.0000000000E+08      out_flows             -1.0000000000E+00     0.0000000000E+00      1          
                                            in_inst:0_usecol:1_direct_idx0:80  log                   relative              4.5120693891E-01      1.0000000000E-08      1.0000000000E+08      in_flows              1.0000000000E+00      0.0000000000E+00      1          
                                           out_inst:0_usecol:2_direct_idx0:80  log                   relative              7.6822206959E-01      1.0000000000E-08      1.0000000000E+08      out_flows             -1.0000000000E+00     0.0000000000E+00      1          
                                            in_inst:0_usecol:1_direct_idx0:81  log                   relative              4.6803433056E-01      1.0000000000E-08      1.0000000000E+08      in_flows              1.0000000000E+00      0.0000000000E+00      1          
                                           out_inst:0_usecol:2_direct_idx0:81  log                   relative              8.6437093725E-01      1.0000000000E-08      1.0000000000E+08      out_flows             -1.0000000000E+00     0.0000000000E+00      1          
                                            in_inst:0_usecol:1_direct_idx0:82  log                   relative              8.0290807877E-01      1.0000000000E-08      1.0000000000E+08      in_flows              1.0000000000E+00      0.0000000000E+00      1          