pcf
* control data
             restart          estimation
       540       704         6         0        10
         3         2              single               point
   2.000000E+01  -3.000000E+00   3.000000E-01   1.000000E-02        -7
   1.000000E+01   1.000000E+01   1.000000E-03
   1.000000E-01
         5   1.000000E-02         3         3   1.000000E-02         3
         0         0         0
* singular value decomposition
         1
  10000000    1.000000E-06
1
* parameter groups
diff                   relative              1.0000000000E-02      0.0 switch                2.0000000000E+00      parabolic             1.0000000000E-05      5.0000000000E-01      smaller              
disp                   relative              1.0000000000E-02      0.0 switch                2.0000000000E+00      parabolic             1.0000000000E-05      5.0000000000E-01      smaller              
out_flows              relative              1.0000000000E-02      0.0 switch                2.0000000000E+00      parabolic             1.0000000000E-05      5.0000000000E-01      smaller              
in_flows               relative              1.0000000000E-02      0.0 switch                2.0000000000E+00      parabolic             1.0000000000E-05      5.0000000000E-01      smaller              
model                  relative              1.0000000000E-02      0.0 switch                2.0000000000E+00      parabolic             1.0000000000E-05      5.0000000000E-01      smaller              
tot                    relative              1.0000000000E-02      0.0 switch                2.0000000000E+00      parabolic             1.0000000000E-05      5.0000000000E-01      smaller              
* parameter data
                             in_inst:0_usecol:1_direct_idx0:18.75  log                   relative              5.0000000000E-01      1.0000000000E-08      1.0000000000E+08      in_flows              1.0000000000E+00      0.0000000000E+00      1          
                            out_inst:0_usecol:2_direct_idx0:18.75  log                   relative              5.0000000000E-01      1.0000000000E-08      1.0000000000E+08      out_flows             -1.0000000000E+00     0.0000000000E+00      1          
                             in_inst:0_usecol:1_direct_idx0:18.95  log                   relative              5.0000000000E-01      1.0000000000E-08      1.0000000000E+08      in_flows              1.0000000000E+00      0.0000000000E+00      1          
                            out_inst:0_usecol:2_direct_idx0:18.95  log                   relative              5.0000000000E-01      1.0000000000E-08      1.0000000000E+08      out_flows             -1.0000000000E+00     0.0000000000E+00      1          
                             in_inst:0_usecol:1_direct_idx0:19.15  log                   relative              5.0000000000E-01      1.0000000000E-08      1.0000000000E+08      in_flows              1.0000000000E+00      0.0000000000E+00      1          
                            out_inst:0_usecol:2_direct_idx0:19.15  log                   relative              5.0000000000E-01      1.0000000000E-08      1.0000000000E+08      out_flows             -1.0000000000E+00     0.0000000000E+00      1          
                             in_inst:0_usecol:1_direct_idx0:19.35  log                   relative              5.0000000000E-01      1.0000000000E-08      1.0000000000E+08      in_flows              1.0000000000E+00      0.0000000000E+00      1          
                            out_inst:0_usecol:2_direct_idx0:19.35  log                   relative              5.0000000000E-01      1.0000000000E-08      1.0000000000E+08      out_flows             -1.0000000000E+00     0.0000000000E+00      1          
                             in_inst:0_usecol:1_direct_idx0:19.55  log                   relative              5.0000000000E-01      1.0000000000E-08      1.0000000000E+08      in_flows              1.0000000000E+00      0.0000000000E+00      1          
                            out_inst:0_usecol:2_direct_idx0:19.55  log                   relative              5.0000000000E-01      1.0000000000E-08      1.0000000000E+08      out_flows             -1.0000000000E+00     0.0000000000E+00      1          
                             in_inst:0_usecol:1_direct_idx0:19.75  log                   relative              5.0000000000E-01      1.0000000000E-08      1.0000000000E+08      in_flows              1.0000000000E+00      0.0000000000E+00      1          
                            out_inst:0_usecol:2_direct_idx0:19.75  log                   relative              5.0000000000E-01      1.0000000000E-08      1.0000000000E+08      out_flows             -1.0000000000E+00     0.0000000000E+00      1          
                             in_inst:0_usecol:1_direct_idx0:19.95  log                   relative              5.0000000000E-01      1.0000000000E-08      1.0000000000E+08      in_flows              1.0000000000E+00      0.0000000000E+00      1          
                            out_inst:0_usecol:2_direct_idx0:19.95  log                   relative              5.0000000000E-01      1.0000000000E-08      1.0000000000E+08      out_flows             -1.0000000000E+00     0.0000000000E+00      1          
                             in_inst:0_usecol:1_direct_idx0:20.15  log                   relative              5.0000000000E-01      1.0000000000E-08      1.0000000000E+08      in_flows              1.0000000000E+00      0.0000000000E+00      1          
                            out_inst:0_usecol:2_direct_idx0:20.15  log                   relative              5.0000000000E-01      1.0000000000E-08      1.0000000000E+08      out_flows             -1.0000000000E+00     0.0000000000E+00      1          
                             in_inst:0_usecol:1_direct_idx0:20.35  log                   relative              5.0000000000E-01      1.0000000000E-08      1.0000000000E+08      in_flows              1.0000000000E+00      0.0000000000E+00      1          
                            out_inst:0_usecol:2_direct_idx0:20.35  log                   relative              5.0000000000E-01      1.0000000000E-08      1.0000000000E+08      out_flows             -1.0000000000E+00     0.0000000000E+00      1          
                             in_inst:0_usecol:1_direct_idx0:20.55  log                   relative              5.0000000000E-01      1.0000000000E-08      1.0000000000E+08      in_flows              1.0000000000E+00      0.0000000000E+00      1          
                            out_inst:0_usecol:2_direct_idx0:20.55  log                   relative              5.0000000000E-01      1.0000000000E-08      1.0000000000E+08      out_flows             -1.0000000000E+00     0.0000000000E+00      1          
                             in_inst:0_usecol:1_direct_idx0:20.75  log                   relative              5.0000000000E-01      1.0000000000E-08      1.0000000000E+08      in_flows              1.0000000000E+00      0.0000000000E+00      1          
                            out_inst:0_usecol:2_direct_idx0:20.75  log                   relative              5.0000000000E-01      1.0000000000E-08      1.0000000000E+08      out_flows             -1.0000000000E+00     0.0000000000E+00      1          
                             in_inst:0_usecol:1_direct_idx0:20.95  log                   relative              5.0000000000E-01      1.0000000000E-08      1.0000000000E+08      in_flows              1.0000000000E+00      0.0000000000E+00      1          
                            out_inst:0_usecol:2_direct_idx0:20.95  log                   relative              5.0000000000E-01      1.0000000000E-08      1.0000000000E+08      out_flows             -1.0000000000E+00     0.0000000000E+00      1          
                             in_inst:0_usecol:1_direct_idx0:21.15  log                   relative              5.0000000000E-01      1.0000000000E-08      1.0000000000E+08      in_flows              1.0000000000E+00      0.0000000000E+00      1          
                            out_inst:0_usecol:2_direct_idx0:21.15  log                   relative              5.0000000000E-01      1.0000000000E-08      1.0000000000E+08      out_flows             -1.0000000000E+00     0.0000000000E+00      1          
                             in_inst:0_usecol:1_direct_idx0:21.35  log                   relative              5.0000000000E-01      1.0000000000E-08      1.0000000000E+08      in_flows              1.0000000000E+00      0.0000000000E+00      1          
                            out_inst:0_usecol:2_direct_idx0:21.35  log                   relative              5.0000000000E-01      1.0000000000E-08      1.0000000000E+08      out_flows             -1.0000000000E+00     0.0000000000E+00      1          
                             in_inst:0_usecol:1_direct_idx0:21.55  log                   relative              5.0000000000E-01      1.0000000000E-08      1.0000000000E+08      in_flows              1.0000000000E+00      0.0000000000E+00      1          
                            out_inst:0_usecol:2_direct_idx0:21.55  log                   relative              5.0000000000E-01      1.0000000000E-08      1.0000000000E+08      out_flows             -1.0000000000E+00     0.0000000000E+00      1          
                             in_inst:0_usecol:1_direct_idx0:21.75  log                   relative              5.0000000000E-01      1.0000000000E-08      1.0000000000E+08      in_flows              1.0000000000E+00      0.0000000000E+00      1          
                            out_inst:0_usecol:2_direct_idx0:21.75  log                   relative              5.0000000000E-01      1.0000000000E-08      1.0000000000E+08      out_flows             -1.0000000000E+00     0.0000000000E+00      1          
                             in_inst:0_usecol:1_direct_idx0:21.95  log                   relative              5.0000000000E-01      1.0000000000E-08      1.0000000000E+08      in_flows              1.0000000000E+00      0.0000000000E+00      1          
                            out_inst:0_usecol:2_direct_idx0:21.95  log                   relative              5.0000000000E-01      1.0000000000E-08      1.0000000000E+08      out_flows             -1.0000000000E+00     0.0000000000E+00      1          
                             in_inst:0_usecol:1_direct_idx0:22.15  log                   relative              5.0000000000E-01      1.0000000000E-08      1.0000000000E+08      in_flows              1.0000000000E+00      0.0000000000E+00      1          
                            out_inst:0_usecol:2_direct_idx0:22.15  log                   relative              5.0000000000E-01      1.0000000000E-08      1.0000000000E+08      out_flows             -1.0000000000E+00     0.0000000000E+00      1          
                             in_inst:0_usecol:1_direct_idx0:22.35  log                   relative              5.0000000000E-01      1.0000000000E-08      1.0000000000E+08      in_flows              1.0000000000E+00      0.0000000000E+00      1          
                            out_inst:0_usecol:2_direct_idx0:22.35  log                   relative              5.0000000000E-01      1.0000000000E-08      1.0000000000E+08      out_flows             -1.0000000000E+00     0.0000000000E+00      1          
                             in_inst:0_usecol:1_direct_idx0:22.55  log                   relative              5.0000000000E-01      1.0000000000E-08      1.0000000000E+08      in_flows              1.0000000000E+00      0.0000000000E+00      1          
                            out_inst:0_usecol:2_direct_idx0:22.55  log                   relative              5.0000000000E-01      1.0000000000E-08      1.0000000000E+08      out_flows             -1.0000000000E+00     0.0000000000E+00      1          
                             in_inst:0_usecol:1_direct_idx0:22.75  log                   relative              5.0000000000E-01      1.0000000000E-08      1.0000000000E+08      in_flows              1.0000000000E+00      0.0000000000E+00      1          
                            out_inst:0_usecol:2_direct_idx0:22.75  log                   relative              5.0000000000E-01      1.0000000000E-08      1.0000000000E+08      out_flows             -1.0000000000E+00     0.0000000000E+00      1          
                             in_inst:0_usecol:1_direct_idx0:22.95  log                   relative              5.0000000000E-01      1.0000000000E-08      1.0000000000E+08      in_flows              1.0000000000E+00      0.0000000000E+00      1          
                            out_inst:0_usecol:2_direct_idx0:22.95  log                   relative              5.0000000000E-01      1.0000000000E-08      1.0000000000E+08      out_flows             -1.0000000000E+00     0.0000000000E+00      1          
                             in_inst:0_usecol:1_direct_idx0:23.15  log                   relative              5.0000000000E-01      1.0000000000E-08      1.0000000000E+08      in_flows              1.0000000000E+00      0.0000000000E+00      1          
                            out_inst:0_usecol:2_direct_idx0:23.15  log                   relative              5.0000000000E-01      1.0000000000E-08      1.0000000000E+08      out_flows             -1.0000000000E+00     0.0000000000E+00      1          
                             in_inst:0_usecol:1_direct_idx0:23.35  log                   relative              5.0000000000E-01      1.0000000000E-08      1.0000000000E+08      in_flows              1.0000000000E+00      0.0000000000E+00      1          
                            out_inst:0_usecol:2_direct_idx0:23.35  log                   relative              5.0000000000E-01      1.0000000000E-08      1.0000000000E+08      out_flows             -1.0000000000E+00     0.0000000000E+00      1          
                             in_inst:0_usecol:1_direct_idx0:23.55  log                   relative              5.0000000000E-01      1.0000000000E-08      1.0000000000E+08      in_flows              1.0000000000E+00      0.0000000000E+00      1          
                            out_inst:0_usecol:2_direct_idx0:23.55  log                   relative              5.0000000000E-01      1.0000000000E-08      1.0000000000E+08      out_flows             -1.0000000000E+00     0.0000000000E+00      1          
                             in_inst:0_usecol:1_direct_idx0:23.75  log                   relative              5.0000000000E-01      1.0000000000E-08      1.0000000000E+08      in_flows              1.0000000000E+00      0.0000000000E+00      1          
                            out_inst:0_usecol:2_direct_idx0:23.75  log                   relative              5.0000000000E-01      1.0000000000E-08      1.0000000000E+08      out_flows             -1.0000000000E+00     0.0000000000E+00      1          
                             in_inst:0_usecol:1_direct_idx0:23.95  log                   relative              5.0000000000E-01      1.0000000000E-08      1.0000000000E+08      in_flows              1.0000000000E+00      0.0000000000E+00      1          
                            out_inst:0_usecol:2_direct_idx0:23.95  log                   relative              5.0000000000E-01      1.0000000000E-08      1.0000000000E+08      out_flows             -1.0000000000E+00     0.0000000000E+00      1          
                             in_inst:0_usecol:1_direct_idx0:24.15  log                   relative              5.0000000000E-01      1.0000000000E-08      1.0000000000E+08      in_flows              1.0000000000E+00      0.0000000000E+00      1          
                            out_inst:0_usecol:2_direct_idx0:24.15  log                   relative              5.0000000000E-01      1.0000000000E-08      1.0000000000E+08      out_flows             -1.0000000000E+00     0.0000000000E+00      1          
                             in_inst:0_usecol:1_direct_idx0:24.35  log                   relative              5.0000000000E-01      1.0000000000E-08      1.0000000000E+08      in_flows              1.0000000000E+00      0.0000000000E+00      1          
                            out_inst:0_usecol:2_direct_idx0:24.35  log                   relative              5.0000000000E-01      1.0000000000E-08      1.0000000000E+08      out_flows             -1.0000000000E+00     0.0000000000E+00      1          
                             in_inst:0_usecol:1_direct_idx0:24.55  log                   relative              5.0000000000E-01      1.0000000000E-08      1.0000000000E+08      in_flows              1.0000000000E+00      0.0000000000E+00      1          
                            out_inst:0_usecol:2_direct_idx0:24.55  log                   relative              5.0000000000E-01      1.0000000000E-08      1.0000000000E+08      out_flows             -1.0000000000E+00     0.0000000000E+00      1          
                             in_inst:0_usecol:1_direct_idx0:24.75  log                   relative              5.0000000000E-01      1.0000000000E-08      1.0000000000E+08      in_flows              1.0000000000E+00      0.0000000000E+00      1          
                            out_inst:0_usecol:2_direct_idx0:24.75  log                   relative              5.0000000000E-01      1.0000000000E-08      1.0000000000E+08      out_flows             -1.0000000000E+00     0.0000000000E+00      1          
                             in_inst:0_usecol:1_direct_idx0:24.95  log                   relative              5.0000000000E-01      1.0000000000E-08      1.0000000000E+08      in_flows              1.0000000000E+00      0.0000000000E+00      1          
                            out_inst:0_usecol:2_direct_idx0:24.95  log                   relative              5.0000000000E-01      1.0000000000E-08      1.0000000000E+08      out_flows             -1.0000000000E+00     0.0000000000E+00      1          
                             in_inst:0_usecol:1_direct_idx0:25.15  log                   relative              5.0000000000E-01      1.0000000000E-08      1.0000000000E+08      in_flows              1.0000000000E+00      0.0000000000E+00      1          
                            out_inst:0_usecol:2_direct_idx0:25.15  log                   relative              5.0000000000E-01      1.0000000000E-08      1.0000000000E+08      out_flows             -1.0000000000E+00     0.0000000000E+00      1          
                             in_inst:0_usecol:1_direct_idx0:25.35  log                   relative              5.0000000000E-01      1.0000000000E-08      1.0000000000E+08      in_flows              1.0000000000E+00      0.0000000000E+00      1          
                            out_inst:0_usecol:2_direct_idx0:25.35  log                   relative              5.0000000000E-01      1.0000000000E-08      1.0000000000E+08      out_flows             -1.0000000000E+00     0.0000000000E+00      1          
                             in_inst:0_usecol:1_direct_idx0:25.55  log                   relative              5.0000000000E-01      1.0000000000E-08      1.0000000000E+08      in_flows              1.0000000000E+00      0.0000000000E+00      1          
                            out_inst:0_usecol:2_direct_idx0:25.55  log                   relative              5.0000000000E-01      1.0000000000E-08      1.0000000000E+08      out_flows             -1.0000000000E+00     0.0000000000E+00      1          
                             in_inst:0_usecol:1_direct_idx0:25.75  log                   relative              5.0000000000E-01      1.0000000000E-08      1.0000000000E+08      in_flows              1.0000000000E+00      0.0000000000E+00      1          
                            out_inst:0_usecol:2_direct_idx0:25.75  log                   relative              5.0000000000E-01      1.0000000000E-08      1.0000000000E+08      out_flows             -1.0000000000E+00     0.0000000000E+00      1          
                             in_inst:0_usecol:1_direct_idx0:25.95  log                   relative              5.0000000000E-01      1.0000000000E-08      1.0000000000E+08      in_flows              1.0000000000E+00      0.0000000000E+00      1          
                            out_inst:0_usecol:2_direct_idx0:25.95  log                   relative              5.0000000000E-01      1.0000000000E-08      1.0000000000E+08      out_flows             -1.0000000000E+00     0.0000000000E+00      1          
                             in_inst:0_usecol:1_direct_idx0:26.15  log                   relative              5.0000000000E-01      1.0000000000E-08      1.0000000000E+08      in_flows              1.0000000000E+00      0.0000000000E+00      1          
                            out_inst:0_usecol:2_direct_idx0:26.15  log                   relative              5.0000000000E-01      1.0000000000E-08      1.0000000000E+08      out_flows             -1.0000000000E+00     0.0000000000E+00      1          
                             in_inst:0_usecol:1_direct_idx0:26.35  log                   relative              5.0000000000E-01      1.0000000000E-08      1.0000000000E+08      in_flows              1.0000000000E+00      0.0000000000E+00      1          
                            out_inst:0_usecol:2_direct_idx0:26.35  log                   relative              5.0000000000E-01      1.0000000000E-08      1.0000000000E+08      out_flows             -1.0000000000E+00     0.0000000000E+00      1          
                             in_inst:0_usecol:1_direct_idx0:26.55  log                   relative              5.0000000000E-01      1.0000000000E-08      1.0000000000E+08      in_flows              1.0000000000E+00      0.0000000000E+00      1          
                            out_inst:0_usecol:2_direct_idx0:26.55  log                   relative              5.0000000000E-01      1.0000000000E-08      1.0000000000E+08      out_flows             -1.0000000000E+00     0.0000000000E+00      1          
                             in_inst:0_usecol:1_direct_idx0:26.75  log                   relative              5.0000000000E-01      1.0000000000E-08      1.0000000000E+08      in_flows              1.0000000000E+00      0.0000000000E+00      1          
                            out_inst:0_usecol:2_direct_idx0:26.75  log                   relative              5.0000000000E-01      1.0000000000E-08      1.0000000000E+08      out_flows             -1.0000000000E+00     0.0000000000E+00      1          
                             in_inst:0_usecol:1_direct_idx0:26.95  log                   relative              5.0000000000E-01      1.0000000000E-08      1.0000000000E+08      in_flows              1.0000000000E+00      0.0000000000E+00      1          
                            out_inst:0_usecol:2_direct_idx0:26.95  log                   relative              5.0000000000E-01      1.0000000000E-08      1.0000000000E+08      out_flows             -1.0000000000E+00     0.0000000000E+00      1          
                             in_inst:0_usecol:1_direct_idx0:27.15  log                   relative              5.0000000000E-01      1.0000000000E-08      1.0000000000E+08      in_flows              1.0000000000E+00      0.0000000000E+00      1          
                            out_inst:0_usecol:2_direct_idx0:27.15  log                   relative              5.0000000000E-01      1.0000000000E-08      1.0000000000E+08      out_flows             -1.0000000000E+00     0.0000000000E+00      1          
                             in_inst:0_usecol:1_direct_idx0:27.35  log                   relative              5.0000000000E-01      1.0000000000E-08      1.0000000000E+08      in_flows              1.0000000000E+00      0.0000000000E+00      1          
                            out_inst:0_usecol:2_direct_idx0:27.35  log                   relative              5.0000000000E-01      1.0000000000E-08      1.0000000000E+08      out_flows             -1.0000000000E+00     0.0000000000E+00      1          
                             in_inst:0_usecol:1_direct_idx0:27.55  log                   relative              5.0000000000E-01      1.0000000000E-08      1.0000000000E+08      in_flows              1.0000000000E+00      0.0000000000E+00      1          
                            out_inst:0_usecol:2_direct_idx0:27.55  log                   relative              5.0000000000E-01      1.0000000000E-08      1.0000000000E+08      out_flows             -1.0000000000E+00     0.0000000000E+00      1          
                             in_inst:0_usecol:1_direct_idx0:27.75  log                   relative              5.0000000000E-01      1.0000000000E-08      1.0000000000E+08      in_flows              1.0000000000E+00      0.0000000000E+00      1          
                            out_inst:0_usecol:2_direct_idx0:27.75  log                   relative              5.0000000000E-01      1.0000000000E-08      1.0000000000E+08      out_flows             -1.0000000000E+00     0.0000000000E+00      1          
                             in_inst:0_usecol:1_direct_idx0:27.95  log                   relative              5.0000000000E-01      1.0000000000E-08      1.0000000000E+08      in_flows              1.0000000000E+00      0.0000000000E+00      1          
                            out_inst:0_usecol:2_direct_idx0:27.95  log                   relative              5.0000000000E-01      1.0000000000E-08      1.0000000000E+08      out_flows             -1.0000000000E+00     0.0000000000E+00      1          
                             in_inst:0_usecol:1_direct_idx0:28.15  log                   relative              5.0000000000E-01      1.0000000000E-08      1.0000000000E+08      in_flows              1.0000000000E+00      0.0000000000E+00      1          
                            out_inst:0_usecol:2_direct_idx0:28.15  log                   relative              5.0000000000E-01      1.0000000000E-08      1.0000000000E+08      out_flows             -1.0000000000E+00     0.0000000000E+00      1          
                             in_inst:0_usecol:1_direct_idx0:28.35  log                   relative              5.0000000000E-01      1.0000000000E-08      1.0000000000E+08      in_flows              1.0000000000E+00      0.0000000000E+00      1          
                            out_inst:0_usecol:2_direct_idx0:28.35  log                   relative              5.0000000000E-01      1.0000000000E-08      1.0000000000E+08      out_flows             -1.0000000000E+00     0.0000000000E+00      1          
                             in_inst:0_usecol:1_direct_idx0:28.55  log                   relative              5.0000000000E-01      1.0000000000E-08      1.0000000000E+08      in_flows              1.0000000000E+00      0.0000000000E+00      1          
                            out_inst:0_usecol:2_direct_idx0:28.55  log                   relative              5.0000000000E-01      1.0000000000E-08      1.0000000000E+08      out_flows             -1.0000000000E+00     0.0000000000E+00      1          
                             in_inst:0_usecol:1_direct_idx0:28.75  log                   relative              5.0000000000E-01      1.0000000000E-08      1.0000000000E+08      in_flows              1.0000000000E+00      0.0000000000E+00      1          
                            out_inst:0_usecol:2_direct_idx0:28.75  log                   relative              5.0000000000E-01      1.0000000000E-08      1.0000000000E+08      out_flows             -1.0000000000E+00     0.0000000000E+00      1          
                             in_inst:0_usecol:1_direct_idx0:28.95  log                   relative              5.0000000000E-01      1.0000000000E-08      1.0000000000E+08      in_flows              1.0000000000E+00      0.0000000000E+00      1          
                            out_inst:0_usecol:2_direct_idx0:28.95  log                   relative              5.0000000000E-01      1.0000000000E-08      1.0000000000E+08      out_flows             -1.0000000000E+00     0.0000000000E+00      1          
                             in_inst:0_usecol:1_direct_idx0:29.15  log                   relative              5.0000000000E-01      1.0000000000E-08      1.0000000000E+08      in_flows              1.0000000000E+00      0.0000000000E+00      1          
                            out_inst:0_usecol:2_direct_idx0:29.15  log                   relative              5.0000000000E-01      1.0000000000E-08      1.0000000000E+08      out_flows             -1.0000000000E+00     0.0000000000E+00      1          
                             in_inst:0_usecol:1_direct_idx0:29.35  log                   relative              5.0000000000E-01      1.0000000000E-08      1.0000000000E+08      in_flows              1.0000000000E+00      0.0000000000E+00      1          
                            out_inst:0_usecol:2_direct_idx0:29.35  log                   relative              5.0000000000E-01      1.0000000000E-08      1.0000000000E+08      out_flows             -1.0000000000E+00     0.0000000000E+00      1          
                             in_inst:0_usecol:1_direct_idx0:29.55  log                   relative              5.0000000000E-01      1.0000000000E-08      1.0000000000E+08      in_flows              1.0000000000E+00      0.0000000000E+00      1          
                            out_inst:0_usecol:2_direct_idx0:29.55  log                   relative              5.0000000000E-01      1.0000000000E-08      1.0000000000E+08      out_flows             -1.0000000000E+00     0.0000000000E+00      1          