pcf
* control data
             restart          estimation
       132       480         6         0         8
         3         2              single               point
   1.000000E+01  -3.000000E+00   3.000000E-01   3.000000E-02        10
   3.000000E+01   3.000000E+01   1.000000E-03
   1.000000E-01
        50   1.000000E-02         3         3   1.000000E-02         3
         0         0         0
* singular value decomposition
         1
  10000000    1.000000E-06
1
* parameter groups
diff                   relative              1.0000000000E-02      0.0 switch                2.0000000000E+00      parabolic             1.0000000000E-05      5.0000000000E-01      smaller              
disp                   relative              1.0000000000E-02      0.0 switch                2.0000000000E+00      parabolic             1.0000000000E-05      5.0000000000E-01      smaller              
out_flows              relative              1.0000000000E-02      0.1 switch                2.0000000000E+00      parabolic             1.0000000000E-05      5.0000000000E-01      smaller              
in_flows               relative              1.0000000000E-02      0.1 switch                2.0000000000E+00      parabolic             1.0000000000E-05      5.0000000000E-01      smaller              
model                  relative              1.0000000000E-02      0.0 switch                2.0000000000E+00      parabolic             1.0000000000E-05      5.0000000000E-01      smaller              
tot                    relative              1.0000000000E-02      0.0 switch                2.0000000000E+00      parabolic             1.0000000000E-05      5.0000000000E-01      smaller              
* parameter data
                                          in_inst:0_usecol:1_direct_idx0:29.0  log                   relative              5.0000000000E-01      1.0000000000E-08      1.0000000000E+08      in_flows              1.0000000000E+00      0.0000000000E+00      1          
                                         out_inst:0_usecol:2_direct_idx0:29.0  log                   relative              5.0000000000E-01      1.0000000000E-08      1.0000000000E+08      out_flows             -1.0000000000E+00     0.0000000000E+00      1          
                                          in_inst:0_usecol:1_direct_idx0:30.0  log                   relative              5.0000000000E-01      1.0000000000E-08      1.0000000000E+08      in_flows              1.0000000000E+00      0.0000000000E+00      1          
                                         out_inst:0_usecol:2_direct_idx0:30.0  log                   relative              5.0000000000E-01      1.0000000000E-08      1.0000000000E+08      out_flows             -1.0000000000E+00     0.0000000000E+00      1          
                                          in_inst:0_usecol:1_direct_idx0:31.0  log                   relative              5.0000000000E-01      1.0000000000E-08      1.0000000000E+08      in_flows              1.0000000000E+00      0.0000000000E+00      1          
                                         out_inst:0_usecol:2_direct_idx0:31.0  log                   relative              5.0000000000E-01      1.0000000000E-08      1.0000000000E+08      out_flows             -1.0000000000E+00     0.0000000000E+00      1          
                                          in_inst:0_usecol:1_direct_idx0:32.0  log                   relative              5.0000000000E-01      1.0000000000E-08      1.0000000000E+08      in_flows              1.0000000000E+00      0.0000000000E+00      1          
                                         out_inst:0_usecol:2_direct_idx0:32.0  log                   relative              5.0000000000E-01      1.0000000000E-08      1.0000000000E+08      out_flows             -1.0000000000E+00     0.0000000000E+00      1          
                                          in_inst:0_usecol:1_direct_idx0:33.0  log                   relative              5.0000000000E-01      1.0000000000E-08      1.0000000000E+08      in_flows              1.0000000000E+00      0.0000000000E+00      1          
                                         out_inst:0_usecol:2_direct_idx0:33.0  log                   relative              5.0000000000E-01      1.0000000000E-08      1.0000000000E+08      out_flows             -1.0000000000E+00     0.0000000000E+00      1          
                                          in_inst:0_usecol:1_direct_idx0:34.0  log                   relative              5.0000000000E-01      1.0000000000E-08      1.0000000000E+08      in_flows              1.0000000000E+00      0.0000000000E+00      1          
                                         out_inst:0_usecol:2_direct_idx0:34.0  log                   relative              5.0000000000E-01      1.0000000000E-08      1.0000000000E+08      out_flows             -1.0000000000E+00     0.0000000000E+00      1          
                                          in_inst:0_usecol:1_direct_idx0:35.0  log                   relative              5.0000000000E-01      1.0000000000E-08      1.0000000000E+08      in_flows              1.0000000000E+00      0.0000000000E+00      1          
                                         out_inst:0_usecol:2_direct_idx0:35.0  log                   relative              5.0000000000E-01      1.0000000000E-08      1.0000000000E+08      out_flows             -1.0000000000E+00     0.0000000000E+00      1          
                                          in_inst:0_usecol:1_direct_idx0:36.0  log                   relative              5.0000000000E-01      1.0000000000E-08      1.0000000000E+08      in_flows              1.0000000000E+00      0.0000000000E+00      1          
                                         out_inst:0_usecol:2_direct_idx0:36.0  log                   relative              5.0000000000E-01      1.0000000000E-08      1.0000000000E+08      out_flows             -1.0000000000E+00     0.0000000000E+00      1          
                                          in_inst:0_usecol:1_direct_idx0:37.0  log                   relative              5.0000000000E-01      1.0000000000E-08      1.0000000000E+08      in_flows              1.0000000000E+00      0.0000000000E+00      1          
                                         out_inst:0_usecol:2_direct_idx0:37.0  log                   relative              5.0000000000E-01      1.0000000000E-08      1.0000000000E+08      out_flows             -1.0000000000E+00     0.0000000000E+00      1          
                                          in_inst:0_usecol:1_direct_idx0:38.0  log                   relative              5.0000000000E-01      1.0000000000E-08      1.0000000000E+08      in_flows              1.0000000000E+00      0.0000000000E+00      1          
                                         out_inst:0_usecol:2_direct_idx0:38.0  log                   relative              5.0000000000E-01      1.0000000000E-08      1.0000000000E+08      out_flows             -1.0000000000E+00     0.0000000000E+00      1          
                                          in_inst:0_usecol:1_direct_idx0:39.0  log                   relative              5.0000000000E-01      1.0000000000E-08      1.0000000000E+08      in_flows              1.0000000000E+00      0.0000000000E+00      1          
                                         out_inst:0_usecol:2_direct_idx0:39.0  log                   relative              5.0000000000E-01      1.0000000000E-08      1.0000000000E+08      out_flows             -1.0000000000E+00     0.0000000000E+00      1          
                                          in_inst:0_usecol:1_direct_idx0:40.0  log                   relative              5.0000000000E-01      1.0000000000E-08      1.0000000000E+08      in_flows              1.0000000000E+00      0.0000000000E+00      1          
                                         out_inst:0_usecol:2_direct_idx0:40.0  log                   relative              5.0000000000E-01      1.0000000000E-08      1.0000000000E+08      out_flows             -1.0000000000E+00     0.0000000000E+00      1          
                                          in_inst:0_usecol:1_direct_idx0:41.0  log                   relative              5.0000000000E-01      1.0000000000E-08      1.0000000000E+08      in_flows              1.0000000000E+00      0.0000000000E+00      1          
                                         out_inst:0_usecol:2_direct_idx0:41.0  log                   relative              5.0000000000E-01      1.0000000000E-08      1.0000000000E+08      out_flows             -1.0000000000E+00     0.0000000000E+00      1          
                                          in_inst:0_usecol:1_direct_idx0:42.0  log                   relative              5.0000000000E-01      1.0000000000E-08      1.0000000000E+08      in_flows              1.0000000000E+00      0.0000000000E+00      1          
                                         out_inst:0_usecol:2_direct_idx0:42.0  log                   relative              5.0000000000E-01      1.0000000000E-08      1.0000000000E+08      out_flows             -1.0000000000E+00     0.0000000000E+00      1          
                                          in_inst:0_usecol:1_direct_idx0:43.0  log                   relative              5.0000000000E-01      1.0000000000E-08      1.0000000000E+08      in_flows              1.0000000000E+00      0.0000000000E+00      1          
                                         out_inst:0_usecol:2_direct_idx0:43.0  log                   relative              5.0000000000E-01      1.0000000000E-08      1.0000000000E+08      out_flows             -1.0000000000E+00     0.0000000000E+00      1          
                                          in_inst:0_usecol:1_direct_idx0:44.0  log                   relative              5.0000000000E-01      1.0000000000E-08      1.0000000000E+08      in_flows              1.0000000000E+00      0.0000000000E+00      1          
                                         out_inst:0_usecol:2_direct_idx0:44.0  log                   relative              5.0000000000E-01      1.0000000000E-08      1.0000000000E+08      out_flows             -1.0000000000E+00     0.0000000000E+00      1          
                                          in_inst:0_usecol:1_direct_idx0:45.0  log                   relative              5.0000000000E-01      1.0000000000E-08      1.0000000000E+08      in_flows              1.0000000000E+00      0.0000000000E+00      1          
                                         out_inst:0_usecol:2_direct_idx0:45.0  log                   relative              5.0000000000E-01      1.0000000000E-08      1.0000000000E+08      out_flows             -1.0000000000E+00     0.0000000000E+00      1          
                                          in_inst:0_usecol:1_direct_idx0:46.0  log                   relative              5.0000000000E-01      1.0000000000E-08      1.0000000000E+08      in_flows              1.0000000000E+00      0.0000000000E+00      1          
                                         out_inst:0_usecol:2_direct_idx0:46.0  log                   relative              5.0000000000E-01      1.0000000000E-08      1.0000000000E+08      out_flows             -1.0000000000E+00     0.0000000000E+00      1          
                                          in_inst:0_usecol:1_direct_idx0:47.0  log                   relative              5.0000000000E-01      1.0000000000E-08      1.0000000000E+08      in_flows              1.0000000000E+00      0.0000000000E+00      1          
                                         out_inst:0_usecol:2_direct_idx0:47.0  log                   relative              5.0000000000E-01      1.0000000000E-08      1.0000000000E+08      out_flows             -1.0000000000E+00     0.0000000000E+00      1          
                                          in_inst:0_usecol:1_direct_idx0:48.0  log                   relative              5.0000000000E-01      1.0000000000E-08      1.0000000000E+08      in_flows              1.0000000000E+00      0.0000000000E+00      1          
                                         out_inst:0_usecol:2_direct_idx0:48.0  log                   relative              5.0000000000E-01      1.0000000000E-08      1.0000000000E+08      out_flows             -1.0000000000E+00     0.0000000000E+00      1          
                                          in_inst:0_usecol:1_direct_idx0:49.0  log                   relative              5.0000000000E-01      1.0000000000E-08      1.0000000000E+08      in_flows              1.0000000000E+00      0.0000000000E+00      1          
                                         out_inst:0_usecol:2_direct_idx0:49.0  log                   relative              5.0000000000E-01      1.0000000000E-08      1.0000000000E+08      out_flows             -1.0000000000E+00     0.0000000000E+00      1          
                                          in_inst:0_usecol:1_direct_idx0:50.0  log                   relative              5.0000000000E-01      1.0000000000E-08      1.0000000000E+08      in_flows              1.0000000000E+00      0.0000000000E+00      1          
                                         out_inst:0_usecol:2_direct_idx0:50.0  log                   relative              5.0000000000E-01      1.0000000000E-08      1.0000000000E+08      out_flows             -1.0000000000E+00     0.0000000000E+00      1          
                                          in_inst:0_usecol:1_direct_idx0:51.0  log                   relative              5.0000000000E-01      1.0000000000E-08      1.0000000000E+08      in_flows              1.0000000000E+00      0.0000000000E+00      1          
                                         out_inst:0_usecol:2_direct_idx0:51.0  log                   relative              5.0000000000E-01      1.0000000000E-08      1.0000000000E+08      out_flows             -1.0000000000E+00     0.0000000000E+00      1          
                                          in_inst:0_usecol:1_direct_idx0:52.0  log                   relative              5.0000000000E-01      1.0000000000E-08      1.0000000000E+08      in_flows              1.0000000000E+00      0.0000000000E+00      1          
                                         out_inst:0_usecol:2_direct_idx0:52.0  log                   relative              5.0000000000E-01      1.0000000000E-08      1.0000000000E+08      out_flows             -1.0000000000E+00     0.0000000000E+00      1          
                                          in_inst:0_usecol:1_direct_idx0:53.0  log                   relative              5.0000000000E-01      1.0000000000E-08      1.0000000000E+08      in_flows              1.0000000000E+00      0.0000000000E+00      1          
                                         out_inst:0_usecol:2_direct_idx0:53.0  log                   relative              5.0000000000E-01      1.0000000000E-08      1.0000000000E+08      out_flows             -1.0000000000E+00     0.0000000000E+00      1          
                                          in_inst:0_usecol:1_direct_idx0:54.0  log                   relative              5.0000000000E-01      1.0000000000E-08      1.0000000000E+08      in_flows              1.0000000000E+00      0.0000000000E+00      1          
                                         out_inst:0_usecol:2_direct_idx0:54.0  log                   relative              5.0000000000E-01      1.0000000000E-08      1.0000000000E+08      out_flows             -1.0000000000E+00     0.0000000000E+00      1          
                                          in_inst:0_usecol:1_direct_idx0:55.0  log                   relative              5.0000000000E-01      1.0000000000E-08      1.0000000000E+08      in_flows              1.0000000000E+00      0.0000000000E+00      1          
                                         out_inst:0_usecol:2_direct_idx0:55.0  log                   relative              5.0000000000E-01      1.0000000000E-08      1.0000000000E+08      out_flows             -1.0000000000E+00     0.0000000000E+00      1          
                                          in_inst:0_usecol:1_direct_idx0:56.0  log                   relative              5.0000000000E-01      1.0000000000E-08      1.0000000000E+08      in_flows              1.0000000000E+00      0.0000000000E+00      1          
                                         out_inst:0_usecol:2_direct_idx0:56.0  log                   relative              5.0000000000E-01      1.0000000000E-08      1.0000000000E+08      out_flows             -1.0000000000E+00     0.0000000000E+00      1          
                                          in_inst:0_usecol:1_direct_idx0:57.0  log                   relative              5.0000000000E-01      1.0000000000E-08      1.0000000000E+08      in_flows              1.0000000000E+00      0.0000000000E+00      1          
                                         out_inst:0_usecol:2_direct_idx0:57.0  log                   relative              5.0000000000E-01      1.0000000000E-08      1.0000000000E+08      out_flows             -1.0000000000E+00     0.0000000000E+00      1          
                                          in_inst:0_usecol:1_direct_idx0:58.0  log                   relative              5.0000000000E-01      1.0000000000E-08      1.0000000000E+08      in_flows              1.0000000000E+00      0.0000000000E+00      1          
                                         out_inst:0_usecol:2_direct_idx0:58.0  log                   relative              5.0000000000E-01      1.0000000000E-08      1.0000000000E+08      out_flows             -1.0000000000E+00     0.0000000000E+00      1          
                                          in_inst:0_usecol:1_direct_idx0:59.0  log                   relative              5.0000000000E-01      1.0000000000E-08      1.0000000000E+08      in_flows              1.0000000000E+00      0.0000000000E+00      1          
                                         out_inst:0_usecol:2_direct_idx0:59.0  log                   relative              5.0000000000E-01      1.0000000000E-08      1.0000000000E+08      out_flows             -1.0000000000E+00     0.0000000000E+00      1          
                                          in_inst:0_usecol:1_direct_idx0:60.0  log                   relative              5.0000000000E-01      1.0000000000E-08      1.0000000000E+08      in_flows              1.0000000000E+00      0.0000000000E+00      1          
                                         out_inst:0_usecol:2_direct_idx0:60.0  log                   relative              5.0000000000E-01      1.0000000000E-08      1.0000000000E+08      out_flows             -1.0000000000E+00     0.0000000000E+00      1          
                                          in_inst:0_usecol:1_direct_idx0:61.0  log                   relative              5.0000000000E-01      1.0000000000E-08      1.0000000000E+08      in_flows              1.0000000000E+00      0.0000000000E+00      1          
                                         out_inst:0_usecol:2_direct_idx0:61.0  log                   relative              5.0000000000E-01      1.0000000000E-08      1.0000000000E+08      out_flows             -1.0000000000E+00     0.0000000000E+00      1          
                                          in_inst:0_usecol:1_direct_idx0:62.0  log                   relative              5.0000000000E-01      1.0000000000E-08      1.0000000000E+08      in_flows              1.0000000000E+00      0.0000000000E+00      1          
                                         out_inst:0_usecol:2_direct_idx0:62.0  log                   relative              5.0000000000E-01      1.0000000000E-08      1.0000000000E+08      out_flows             -1.0000000000E+00     0.0000000000E+00      1          
                                          in_inst:0_usecol:1_direct_idx0:63.0  log                   relative              5.0000000000E-01      1.0000000000E-08      1.0000000000E+08      in_flows              1.0000000000E+00      0.0000000000E+00      1          
                                         out_inst:0_usecol:2_direct_idx0:63.0  log                   relative              5.0000000000E-01      1.0000000000E-08      1.0000000000E+08      out_flows             -1.0000000000E+00     0.0000000000E+00      1          
                                          in_inst:0_usecol:1_direct_idx0:64.0  log                   relative              5.0000000000E-01      1.0000000000E-08      1.0000000000E+08      in_flows              1.0000000000E+00      0.0000000000E+00      1          
                                         out_inst:0_usecol:2_direct_idx0:64.0  log                   relative              5.0000000000E-01      1.0000000000E-08      1.0000000000E+08      out_flows             -1.0000000000E+00     0.0000000000E+00      1          
                                          in_inst:0_usecol:1_direct_idx0:65.0  log                   relative              5.0000000000E-01      1.0000000000E-08      1.0000000000E+08      in_flows              1.0000000000E+00      0.0000000000E+00      1          
                                         out_inst:0_usecol:2_direct_idx0:65.0  log                   relative              5.0000000000E-01      1.0000000000E-08      1.0000000000E+08      out_flows             -1.0000000000E+00     0.0000000000E+00      1          
                                          in_inst:0_usecol:1_direct_idx0:66.0  log                   relative              5.0000000000E-01      1.0000000000E-08      1.0000000000E+08      in_flows              1.0000000000E+00      0.0000000000E+00      1          
                                         out_inst:0_usecol:2_direct_idx0:66.0  log                   relative              5.0000000000E-01      1.0000000000E-08      1.0000000000E+08      out_flows             -1.0000000000E+00     0.0000000000E+00      1          
                                          in_inst:0_usecol:1_direct_idx0:67.0  log                   relative              5.0000000000E-01      1.0000000000E-08      1.0000000000E+08      in_flows              1.0000000000E+00      0.0000000000E+00      1          
                                         out_inst:0_usecol:2_direct_idx0:67.0  log                   relative              5.0000000000E-01      1.0000000000E-08      1.0000000000E+08      out_flows             -1.0000000000E+00     0.0000000000E+00      1          
                                          in_inst:0_usecol:1_direct_idx0:68.0  log                   relative              5.0000000000E-01      1.0000000000E-08      1.0000000000E+08      in_flows              1.0000000000E+00      0.0000000000E+00      1          
                                         out_inst:0_usecol:2_direct_idx0:68.0  log                   relative              5.0000000000E-01      1.0000000000E-08      1.0000000000E+08      out_flows             -1.0000000000E+00     0.0000000000E+00      1          
                                          in_inst:0_usecol:1_direct_idx0:69.0  log                   relative              5.0000000000E-01      1.0000000000E-08      1.0000000000E+08      in_flows              1.0000000000E+00      0.0000000000E+00      1          
                                         out_inst:0_usecol:2_direct_idx0:69.0  log                   relative              5.0000000000E-01      1.0000000000E-08      1.0000000000E+08      out_flows             -1.0000000000E+00     0.0000000000E+00      1          
                                          in_inst:0_usecol:1_direct_idx0:70.0  log                   relative              5.0000000000E-01      1.0000000000E-08      1.0000000000E+08      in_flows              1.0000000000E+00      0.0000000000E+00      1          
                                         out_inst:0_usecol:2_direct_idx0:70.0  log                   relative              5.0000000000E-01      1.0000000000E-08      1.0000000000E+08      out_flows             -1.0000000000E+00     0.0000000000E+00      1          
                                          in_inst:0_usecol:1_direct_idx0:71.0  log                   relative              5.0000000000E-01      1.0000000000E-08      1.0000000000E+08      in_flows              1.0000000000E+00      0.0000000000E+00      1          
                                         out_inst:0_usecol:2_direct_idx0:71.0  log                   relative              5.0000000000E-01      1.0000000000E-08      1.0000000000E+08      out_flows             -1.0000000000E+00     0.0000000000E+00      1          
                                          in_inst:0_usecol:1_direct_idx0:72.0  log                   relative              5.0000000000E-01      1.0000000000E-08      1.0000000000E+08      in_flows              1.0000000000E+00      0.0000000000E+00      1          
                                         out_inst:0_usecol:2_direct_idx0:72.0  log                   relative              5.0000000000E-01      1.0000000000E-08      1.0000000000E+08      out_flows             -1.0000000000E+00     0.0000000000E+00      1          
                                          in_inst:0_usecol:1_direct_idx0:73.0  log                   relative              5.0000000000E-01      1.0000000000E-08      1.0000000000E+08      in_flows              1.0000000000E+00      0.0000000000E+00      1          
                                         out_inst:0_usecol:2_direct_idx0:73.0  log                   relative              5.0000000000E-01      1.0000000000E-08      1.0000000000E+08      out_flows             -1.0000000000E+00     0.0000000000E+00      1          
                                          in_inst:0_usecol:1_direct_idx0:74.0  log                   relative              5.0000000000E-01      1.0000000000E-08      1.0000000000E+08      in_flows              1.0000000000E+00      0.0000000000E+00      1          
                                         out_inst:0_usecol:2_direct_idx0:74.0  log                   relative              5.0000000000E-01      1.0000000000E-08      1.0000000000E+08      out_flows             -1.0000000000E+00     0.0000000000E+00      1          
                                          in_inst:0_usecol:1_direct_idx0:75.0  log                   relative              5.0000000000E-01      1.0000000000E-08      1.0000000000E+08      in_flows              1.0000000000E+00      0.0000000000E+00      1          
                                         out_inst:0_usecol:2_direct_idx0:75.0  log                   relative              5.0000000000E-01      1.0000000000E-08      1.0000000000E+08      out_flows             -1.0000000000E+00     0.0000000000E+00      1          
                                          in_inst:0_usecol:1_direct_idx0:76.0  log                   relative              5.0000000000E-01      1.0000000000E-08      1.0000000000E+08      in_flows              1.0000000000E+00      0.0000000000E+00      1          
                                         out_inst:0_usecol:2_direct_idx0:76.0  log                   relative              5.0000000000E-01      1.0000000000E-08      1.0000000000E+08      out_flows             -1.0000000000E+00     0.0000000000E+00      1          
                                          in_inst:0_usecol:1_direct_idx0:77.0  log                   relative              5.0000000000E-01      1.0000000000E-08      1.0000000000E+08      in_flows              1.0000000000E+00      0.0000000000E+00      1          
                                         out_inst:0_usecol:2_direct_idx0:77.0  log                   relative              5.0000000000E-01      1.0000000000E-08      1.0000000000E+08      out_flows             -1.0000000000E+00     0.0000000000E+00      1          
                                          in_inst:0_usecol:1_direct_idx0:78.0  log                   relative              5.0000000000E-01      1.0000000000E-08      1.0000000000E+08      in_flows              1.0000000000E+00      0.0000000000E+00      1          
                                         out_inst:0_usecol:2_direct_idx0:78.0  log                   relative              5.0000000000E-01      1.0000000000E-08      1.0000000000E+08      out_flows             -1.0000000000E+00     0.0000000000E+00      1          
                                          in_inst:0_usecol:1_direct_idx0:79.0  log                   relative              5.0000000000E-01      1.0000000000E-08      1.0000000000E+08      in_flows              1.0000000000E+00      0.0000000000E+00      1          
                                         out_inst:0_usecol:2_direct_idx0:79.0  log                   relative              5.0000000000E-01      1.0000000000E-08      1.0000000000E+08      out_flows             -1.0000000000E+00     0.0000000000E+00      1          
                                          in_inst:0_usecol:1_direct_idx0:80.0  log                   relative              5.0000000000E-01      1.0000000000E-08      1.0000000000E+08      in_flows              1.0000000000E+00      0.0000000000E+00      1          
                                         out_inst:0_usecol:2_direct_idx0:80.0  log                   relative              5.0000000000E-01      1.0000000000E-08      1.0000000000E+08      out_flows             -1.0000000000E+00     0.0000000000E+00      1          
                                          in_inst:0_usecol:1_direct_idx0:81.0  log                   relative              5.0000000000E-01      1.0000000000E-08      1.0000000000E+08      in_flows              1.0000000000E+00      0.0000000000E+00      1          